<additional>
  <poly id="-419542856" color="1,0,0" lineWidth="3" shape="693162.19,4796540.95 693159.26,4796551.39"/>
  <poly id="-419542860" color="1,0,0" lineWidth="3" shape="693160.09,4796540.43 693157.13,4796550.63"/>
  <poly id="-537111428" color="1,0,0" lineWidth="3" shape="694092.48,4791081.23 694092.46,4791081.55 694090.18,4791090.64 694085.53,4791106.22"/>
  <poly id="1001238888#0" color="1,0,0" lineWidth="3" shape="692240.84,4799244.35 692241.06,4799261.62 692231.90,4799262.47 692231.74,4799262.63"/>
  <poly id="1002270332#1" color="1,0,0" lineWidth="3" shape="690682.39,4806525.65 690674.10,4806540.80 690657.08,4806574.47 690642.65,4806602.92"/>
  <poly id="1002270333#0" color="1,0,0" lineWidth="3" shape="690632.76,4806624.61 690632.68,4806624.79"/>
  <poly id="1002270333#1" color="1,0,0" lineWidth="3" shape="690630.93,4806628.55 690628.32,4806634.14 690614.91,4806671.03"/>
  <poly id="1002270334" color="1,0,0" lineWidth="3" shape="690606.46,4806411.28 690611.46,4806407.87"/>
  <poly id="1002270335" color="1,0,0" lineWidth="3" shape="690597.75,4806398.68 690606.09,4806392.63"/>
  <poly id="1003169340" color="1,0,0" lineWidth="3" shape="691793.54,4800670.80 691781.02,4800673.37"/>
  <poly id="1003169343#0" color="1,0,0" lineWidth="3" shape="691822.17,4800664.62 691825.30,4800653.07 691825.58,4800650.07"/>
  <poly id="1004331926" color="1,0,0" lineWidth="3" shape="699543.75,4802859.73 699544.28,4802859.01 699555.93,4802853.27 699560.46,4802850.15"/>
  <poly id="1004344367" color="1,0,0" lineWidth="3" shape="691181.02,4802464.69 691181.76,4802464.57 691189.68,4802457.87 691193.85,4802428.57"/>
  <poly id="1004344399#3" color="1,0,0" lineWidth="3" shape="691338.74,4802569.51 691330.47,4802539.83 691333.15,4802539.04"/>
  <poly id="1004344401#0" color="1,0,0" lineWidth="3" shape="691368.31,4802604.93 691369.72,4802604.53 691369.09,4802602.09"/>
  <poly id="1004344401#2" color="1,0,0" lineWidth="3" shape="691360.10,4802569.72 691351.88,4802540.41"/>
  <poly id="1004344403#1" color="1,0,0" lineWidth="3" shape="691338.58,4802578.29 691329.61,4802580.67"/>
  <poly id="1004344407#0" color="1,0,0" lineWidth="3" shape="691346.99,4802610.36 691346.94,4802610.17"/>
  <poly id="1004344407#6" color="1,0,0" lineWidth="3" shape="691329.36,4802547.16 691329.31,4802546.96"/>
  <poly id="1004344410" color="1,0,0" lineWidth="3" shape="691335.29,4802547.38 691332.26,4802548.20"/>
  <poly id="1004344411" color="1,0,0" lineWidth="3" shape="691339.45,4802562.21 691336.40,4802563.04"/>
  <poly id="1004344412" color="1,0,0" lineWidth="3" shape="691347.81,4802591.98 691344.70,4802592.80"/>
  <poly id="1004344413" color="1,0,0" lineWidth="3" shape="691352.01,4802606.89 691348.87,4802607.73"/>
  <poly id="1008131433#0" color="1,0,0" lineWidth="3" shape="691801.12,4804336.06 691790.52,4804343.01"/>
  <poly id="1008131435" color="1,0,0" lineWidth="3" shape="691752.74,4804364.01 691749.19,4804364.90"/>
  <poly id="1008131441" color="1,0,0" lineWidth="3" shape="691966.99,4804568.37 691975.34,4804569.68"/>
  <poly id="1008131443#0" color="1,0,0" lineWidth="3" shape="691965.24,4804554.11 691965.86,4804564.83 691974.90,4804567.64"/>
  <poly id="1008131444" color="1,0,0" lineWidth="3" shape="691965.26,4804551.99 691965.57,4804547.72"/>
  <poly id="1008131445#0" color="1,0,0" lineWidth="3" shape="691963.67,4804568.47 691960.34,4804569.22"/>
  <poly id="1008131451" color="1,0,0" lineWidth="3" shape="692064.22,4804574.82 692062.82,4804580.24 692056.60,4804584.90"/>
  <poly id="1008131457" color="1,0,0" lineWidth="3" shape="691842.99,4804496.60 691857.82,4804508.83 691870.09,4804520.88 691892.34,4804538.97 691903.06,4804544.96"/>
  <poly id="1008137494" color="1,0,0" lineWidth="3" shape="693791.57,4799556.01 693810.33,4799558.48"/>
  <poly id="1008165986" color="1,0,0" lineWidth="3" shape="692140.88,4804482.62 692149.64,4804480.82 692157.57,4804489.48"/>
  <poly id="1008165994#1" color="1,0,0" lineWidth="3" shape="692072.92,4804501.31 692074.34,4804502.21 692082.17,4804512.62 692089.07,4804517.58 692095.06,4804516.91"/>
  <poly id="1008165995" color="1,0,0" lineWidth="3" shape="692058.55,4804427.27 692051.99,4804424.84 692040.48,4804422.94 692030.06,4804423.71 692030.09,4804425.15"/>
  <poly id="1008166028" color="1,0,0" lineWidth="3" shape="692060.93,4804332.02 692067.81,4804339.65"/>
  <poly id="1010725424" color="1,0,0" lineWidth="3" shape="690980.53,4804544.15 690980.36,4804550.95"/>
  <poly id="1012832662" color="1,0,0" lineWidth="3" shape="691984.66,4795713.74 691993.65,4795715.67 691995.09,4795706.97"/>
  <poly id="1013538004" color="1,0,0" lineWidth="3" shape="693912.56,4791256.85 693896.16,4791253.98"/>
  <poly id="1013540237#0" color="1,0,0" lineWidth="3" shape="694093.37,4791178.18 694106.97,4791180.76"/>
  <poly id="1013540238" color="1,0,0" lineWidth="3" shape="694092.42,4791183.02 694099.35,4791184.07"/>
  <poly id="1013540241" color="1,0,0" lineWidth="3" shape="694091.08,4791190.61 694095.03,4791193.14"/>
  <poly id="1016910981" color="1,0,0" lineWidth="3" shape="690608.89,4805001.31 690579.79,4804999.76"/>
  <poly id="1016927137" color="1,0,0" lineWidth="3" shape="690173.12,4805816.74 690163.51,4805806.98 690132.06,4805835.81 690126.01,4805831.00"/>
  <poly id="1016927140#0" color="1,0,0" lineWidth="3" shape="690126.04,4805871.47 690129.47,4805867.34"/>
  <poly id="1016927141" color="1,0,0" lineWidth="3" shape="690119.06,4805849.25 690121.86,4805856.73 690125.67,4805861.78 690128.95,4805863.89"/>
  <poly id="1016927146" color="1,0,0" lineWidth="3" shape="689989.89,4806228.46 689988.06,4806228.13"/>
  <poly id="1016927149" color="1,0,0" lineWidth="3" shape="689991.07,4806228.68 689991.27,4806228.72"/>
  <poly id="1017145743" color="1,0,0" lineWidth="3" shape="693417.09,4794378.22 693485.72,4794391.36"/>
  <poly id="1017807127" color="1,0,0" lineWidth="3" shape="692353.29,4795669.15 692350.71,4795661.40"/>
  <poly id="1019999099" color="1,0,0" lineWidth="3" shape="694311.74,4794140.15 694316.00,4794149.58 694319.66,4794159.37"/>
  <poly id="1019999101#4" color="1,0,0" lineWidth="3" shape="695002.41,4793657.05 694992.77,4793643.24"/>
  <poly id="102020746" color="1,0,0" lineWidth="3" shape="692518.56,4796412.55 692518.57,4796394.54 692518.66,4796373.49"/>
  <poly id="1020267484" color="1,0,0" lineWidth="3" shape="691037.41,4802659.94 691040.20,4802661.01 691044.07,4802652.40 691044.67,4802652.64"/>
  <poly id="1020267490" color="1,0,0" lineWidth="3" shape="690958.51,4802572.57 690955.30,4802573.42 690950.69,4802565.91 690945.73,4802557.84"/>
  <poly id="1020275475" color="1,0,0" lineWidth="3" shape="690877.40,4802598.08 690877.86,4802598.19"/>
  <poly id="1020275476" color="1,0,0" lineWidth="3" shape="690888.45,4802583.64 690888.65,4802583.70"/>
  <poly id="1020275477#0" color="1,0,0" lineWidth="3" shape="690876.44,4802597.84 690876.24,4802597.80"/>
  <poly id="1020275478" color="1,0,0" lineWidth="3" shape="690862.40,4802576.65 690851.59,4802581.51"/>
  <poly id="1020275483" color="1,0,0" lineWidth="3" shape="690896.46,4802571.22 690892.55,4802584.85 690890.96,4802584.38"/>
  <poly id="1020275485#0" color="1,0,0" lineWidth="3" shape="690869.73,4802622.10 690871.45,4802622.61"/>
  <poly id="1020275485#1" color="1,0,0" lineWidth="3" shape="690876.24,4802624.04 690878.16,4802624.61"/>
  <poly id="1020275486" color="1,0,0" lineWidth="3" shape="690844.53,4802611.91 690854.47,4802571.89 690855.74,4802569.35"/>
  <poly id="1020275492" color="1,0,0" lineWidth="3" shape="690902.34,4802499.76 690902.46,4802486.08 690899.61,4802477.79 690893.64,4802461.11"/>
  <poly id="1020275493" color="1,0,0" lineWidth="3" shape="690873.77,4802459.99 690875.19,4802460.25 690890.63,4802459.14"/>
  <poly id="1020275498" color="1,0,0" lineWidth="3" shape="690871.09,4802460.25 690870.93,4802460.38"/>
  <poly id="1020275506" color="1,0,0" lineWidth="3" shape="690891.61,4802271.64 690891.94,4802276.05"/>
  <poly id="1020275508" color="1,0,0" lineWidth="3" shape="690891.38,4802268.65 690891.01,4802263.70"/>
  <poly id="1020322595#3" color="1,0,0" lineWidth="3" shape="694729.33,4797647.89 694729.52,4797647.84"/>
  <poly id="1020547707" color="1,0,0" lineWidth="3" shape="692727.21,4802841.26 692703.24,4802846.00"/>
  <poly id="1020547711" color="1,0,0" lineWidth="3" shape="692693.56,4802793.06 692725.92,4802807.25 692727.38,4802807.38 692728.54,4802806.61 692736.74,4802796.10"/>
  <poly id="1020547713" color="1,0,0" lineWidth="3" shape="692835.64,4802772.06 692838.16,4802765.09"/>
  <poly id="1020547714#0" color="1,0,0" lineWidth="3" shape="692925.73,4802788.32 692916.07,4802788.07 692913.06,4802787.83 692901.51,4802785.32 692896.51,4802781.60 692881.77,4802781.30 692874.82,4802783.98 692856.74,4802778.31 692849.49,4802774.04 692844.73,4802762.87 692844.21,4802762.52"/>
  <poly id="1020547718#0" color="1,0,0" lineWidth="3" shape="692828.56,4802747.53 692845.36,4802699.65"/>
  <poly id="1020547718#1" color="1,0,0" lineWidth="3" shape="692850.22,4802686.01 692860.09,4802658.44"/>
  <poly id="1021406237#4" color="1,0,0" lineWidth="3" shape="689693.67,4804177.06 689693.68,4804177.26"/>
  <poly id="1021406244#1" color="1,0,0" lineWidth="3" shape="689703.14,4804179.19 689696.22,4804179.14"/>
  <poly id="1021406249" color="1,0,0" lineWidth="3" shape="689704.76,4804192.06 689702.55,4804192.10"/>
  <poly id="1021406250#2" color="1,0,0" lineWidth="3" shape="689667.94,4804192.89 689699.55,4804192.17"/>
  <poly id="1021685186#0" color="1,0,0" lineWidth="3" shape="692690.05,4801999.16 692690.08,4801998.16"/>
  <poly id="1021701293#2" color="1,0,0" lineWidth="3" shape="692279.90,4799141.85 692279.92,4799142.05"/>
  <poly id="1021974732" color="1,0,0" lineWidth="3" shape="690342.00,4803806.06 690342.03,4803805.86"/>
  <poly id="1023357064" color="1,0,0" lineWidth="3" shape="691327.12,4802941.23 691329.29,4802941.21"/>
  <poly id="1023357066" color="1,0,0" lineWidth="3" shape="691293.85,4802886.54 691293.83,4802888.42"/>
  <poly id="1023357075" color="1,0,0" lineWidth="3" shape="690980.85,4803009.40 690982.37,4803009.79 690999.84,4803008.79 691000.08,4803013.45 691001.78,4803014.52 691016.76,4803013.56 691021.36,4803014.86 691027.34,4803014.66 691028.78,4803014.62 691028.90,4803018.00"/>
  <poly id="1023391481" color="1,0,0" lineWidth="3" shape="691257.34,4802685.90 691257.39,4802686.09"/>
  <poly id="1023391482" color="1,0,0" lineWidth="3" shape="691248.75,4802689.85 691248.80,4802690.05"/>
  <poly id="1023391494#0" color="1,0,0" lineWidth="3" shape="691292.91,4801483.06 691288.63,4801479.10 691295.53,4801465.61 691293.99,4801464.99"/>
  <poly id="1023391494#1" color="1,0,0" lineWidth="3" shape="691285.16,4801461.64 691281.27,4801460.26"/>
  <poly id="1023941673" color="1,0,0" lineWidth="3" shape="690240.37,4804218.80 690238.24,4804217.18 690239.13,4804215.84"/>
  <poly id="1023941678" color="1,0,0" lineWidth="3" shape="690197.54,4804400.30 690198.30,4804399.00"/>
  <poly id="1026080626" color="1,0,0" lineWidth="3" shape="689997.83,4802113.55 689991.90,4802119.01"/>
  <poly id="1026080630" color="1,0,0" lineWidth="3" shape="689931.75,4802107.38 689938.38,4802111.13"/>
  <poly id="1026080631" color="1,0,0" lineWidth="3" shape="689965.45,4802130.80 689966.70,4802131.83 689971.37,4802135.51"/>
  <poly id="1026080632" color="1,0,0" lineWidth="3" shape="689981.83,4802133.87 689979.25,4802133.80 689975.48,4802135.06 689974.96,4802135.48"/>
  <poly id="1026080633#0" color="1,0,0" lineWidth="3" shape="689998.62,4802110.04 689997.40,4802107.00 689997.32,4802105.81"/>
  <poly id="1026080633#1" color="1,0,0" lineWidth="3" shape="689997.67,4802095.95 689997.79,4802095.04 689997.85,4802094.70"/>
  <poly id="1026080636" color="1,0,0" lineWidth="3" shape="690046.25,4802032.53 690036.94,4802039.36 690026.13,4802049.39 690019.18,4802056.49 690009.51,4802070.07 690001.80,4802083.54 689999.18,4802090.10"/>
  <poly id="1026097673#0" color="1,0,0" lineWidth="3" shape="690418.92,4802265.62 690435.61,4802248.12 690449.16,4802236.86"/>
  <poly id="1026120701" color="1,0,0" lineWidth="3" shape="684172.10,4803217.06 684172.61,4803226.56"/>
  <poly id="1026120702" color="1,0,0" lineWidth="3" shape="684210.35,4803216.30 684212.45,4803222.18"/>
  <poly id="1026120715" color="1,0,0" lineWidth="3" shape="684226.28,4803148.97 684227.82,4803149.41"/>
  <poly id="1026120717" color="1,0,0" lineWidth="3" shape="684229.47,4803138.19 684231.92,4803139.79"/>
  <poly id="1026483827" color="1,0,0" lineWidth="3" shape="690539.39,4801573.03 690537.07,4801584.74"/>
  <poly id="1026483838" color="1,0,0" lineWidth="3" shape="690351.18,4801673.40 690350.20,4801670.30"/>
  <poly id="1026483844" color="1,0,0" lineWidth="3" shape="690351.51,4801674.40 690351.56,4801674.60"/>
  <poly id="1030219243#1" color="1,0,0" lineWidth="3" shape="694789.25,4797961.42 694789.44,4797961.37"/>
  <poly id="1030807689" color="1,0,0" lineWidth="3" shape="690311.97,4801160.52 690308.09,4801205.35 690306.54,4801229.72 690306.58,4801240.22 690305.76,4801261.44 690295.36,4801262.49 690274.43,4801279.25 690260.96,4801284.65 690251.02,4801285.85 690243.51,4801285.75 690237.67,4801290.36 690234.30,4801288.53 690230.31,4801296.47 690220.89,4801292.11 690206.74,4801284.88 690183.37,4801275.85 690150.61,4801258.65 690135.40,4801260.87 690126.85,4801240.55 690122.30,4801235.15 690117.37,4801232.37"/>
  <poly id="1030921096" color="1,0,0" lineWidth="3" shape="690251.83,4800810.03 690247.74,4800700.93 690168.32,4800704.04 690168.03,4800696.16"/>
  <poly id="1030921098" color="1,0,0" lineWidth="3" shape="690249.41,4800812.61 690224.35,4800813.33"/>
  <poly id="1031031816" color="1,0,0" lineWidth="3" shape="691521.96,4804906.35 691521.86,4804906.52"/>
  <poly id="1031460030" color="1,0,0" lineWidth="3" shape="689323.43,4803493.40 689313.12,4803421.38"/>
  <poly id="1031460031" color="1,0,0" lineWidth="3" shape="689323.87,4803496.35 689324.68,4803501.40"/>
  <poly id="1032551473" color="1,0,0" lineWidth="3" shape="693066.92,4795127.20 693067.98,4795124.24 693073.93,4795107.54"/>
  <poly id="1033211833" color="1,0,0" lineWidth="3" shape="690597.51,4805460.44 690571.77,4805448.42"/>
  <poly id="1033211834" color="1,0,0" lineWidth="3" shape="690505.54,4805555.64 690481.71,4805548.40"/>
  <poly id="1033211835" color="1,0,0" lineWidth="3" shape="690493.86,4805616.24 690482.42,4805620.23"/>
  <poly id="1033211836" color="1,0,0" lineWidth="3" shape="690629.22,4805551.05 690656.29,4805560.36"/>
  <poly id="1033573182#0" color="1,0,0" lineWidth="3" shape="696839.90,4794404.81 696840.10,4794404.84"/>
  <poly id="1033573187#1" color="1,0,0" lineWidth="3" shape="696949.68,4794473.59 696949.18,4794462.08"/>
  <poly id="1033573191" color="1,0,0" lineWidth="3" shape="696901.16,4794574.77 696900.04,4794568.23 696897.41,4794568.81 696887.27,4794569.27 696872.07,4794550.31"/>
  <poly id="1034182943" color="1,0,0" lineWidth="3" shape="692676.05,4792901.40 692676.23,4792901.46"/>
  <poly id="1034182954" color="1,0,0" lineWidth="3" shape="692713.67,4792929.22 692740.53,4792939.04"/>
  <poly id="1034182955" color="1,0,0" lineWidth="3" shape="692746.48,4792929.86 692743.73,4792937.54"/>
  <poly id="1034182959#0" color="1,0,0" lineWidth="3" shape="692775.26,4792889.81 692774.16,4792893.33 692770.80,4792904.34"/>
  <poly id="1034182960" color="1,0,0" lineWidth="3" shape="692773.62,4792886.67 692753.72,4792880.41"/>
  <poly id="1035157685" color="1,0,0" lineWidth="3" shape="690888.70,4805442.59 690888.76,4805441.32"/>
  <poly id="1035219799" color="1,0,0" lineWidth="3" shape="700088.04,4795786.42 700087.99,4795786.23"/>
  <poly id="1037088524" color="1,0,0" lineWidth="3" shape="690663.91,4802056.00 690663.63,4802057.30 690657.91,4802072.91"/>
  <poly id="1037088536" color="1,0,0" lineWidth="3" shape="690493.91,4802035.91 690487.59,4802030.26 690486.95,4802029.21 690487.14,4802027.89 690488.03,4802026.31 690487.86,4802025.60 690485.28,4802022.84 690485.02,4802021.97 690484.92,4802020.94 690483.95,4802019.19 690482.77,4802017.94"/>
  <poly id="1037088558" color="1,0,0" lineWidth="3" shape="690379.51,4801986.39 690382.64,4801986.48 690385.96,4801985.17 690387.30,4801984.19 690391.32,4801983.46 690399.49,4801981.63 690400.89,4801981.28"/>
  <poly id="1037088560#0" color="1,0,0" lineWidth="3" shape="690439.19,4801999.89 690437.19,4801998.54 690430.52,4801996.26 690428.67,4801994.88 690428.17,4801993.03 690426.75,4801988.97 690425.09,4801985.84 690422.82,4801983.20 690419.30,4801980.87 690415.26,4801975.83 690415.16,4801975.81"/>
  <poly id="1037088560#1" color="1,0,0" lineWidth="3" shape="690412.22,4801977.72 690411.98,4801978.91 690410.82,4801979.87 690409.38,4801980.09 690408.10,4801980.71 690404.05,4801980.83"/>
  <poly id="1037088564" color="1,0,0" lineWidth="3" shape="690401.98,4801946.00 690400.34,4801947.92"/>
  <poly id="1037088576" color="1,0,0" lineWidth="3" shape="690318.98,4801891.08 690324.12,4801881.10"/>
  <poly id="1037106449" color="1,0,0" lineWidth="3" shape="690758.69,4802219.05 690763.44,4802207.39"/>
  <poly id="1037106451" color="1,0,0" lineWidth="3" shape="690747.55,4802247.91 690759.13,4802251.74 690760.89,4802251.79 690762.33,4802250.71 690766.89,4802241.72 690768.16,4802241.75 690771.61,4802236.92 690776.15,4802223.22 690779.40,4802215.79 690779.43,4802213.16"/>
  <poly id="1037106467" color="1,0,0" lineWidth="3" shape="690545.83,4802146.14 690545.83,4802158.95"/>
  <poly id="1037106469" color="1,0,0" lineWidth="3" shape="690543.34,4802143.63 690533.07,4802143.60 690533.09,4802140.35"/>
  <poly id="1037106476" color="1,0,0" lineWidth="3" shape="690477.85,4802167.82 690478.76,4802167.95"/>
  <poly id="1037527464#0" color="1,0,0" lineWidth="3" shape="694666.75,4800650.04 694659.06,4800655.02"/>
  <poly id="1037527466" color="1,0,0" lineWidth="3" shape="694661.76,4800665.04 694666.61,4800672.33"/>
  <poly id="1037527468#0" color="1,0,0" lineWidth="3" shape="694660.09,4800662.62 694658.71,4800660.69"/>
  <poly id="1037527469" color="1,0,0" lineWidth="3" shape="694682.01,4800672.86 694685.88,4800670.24"/>
  <poly id="1037527470" color="1,0,0" lineWidth="3" shape="694686.58,4800666.88 694686.69,4800667.04"/>
  <poly id="1037527471#0" color="1,0,0" lineWidth="3" shape="694679.52,4800674.52 694673.85,4800678.26"/>
  <poly id="1037527471#2" color="1,0,0" lineWidth="3" shape="694667.93,4800674.26 694667.82,4800674.10"/>
  <poly id="1037527493" color="1,0,0" lineWidth="3" shape="694664.27,4800742.73 694673.66,4800735.57 694662.71,4800716.02"/>
  <poly id="1037527496" color="1,0,0" lineWidth="3" shape="694694.65,4800697.36 694701.91,4800709.54"/>
  <poly id="1038701862" color="1,0,0" lineWidth="3" shape="696915.22,4794880.58 696921.15,4794885.56"/>
  <poly id="103879948" color="1,0,0" lineWidth="3" shape="692359.92,4795096.54 692353.88,4795089.20 692356.59,4795086.99 692360.18,4795091.36"/>
  <poly id="103879950" color="1,0,0" lineWidth="3" shape="692363.10,4795100.39 692369.24,4795107.82 692371.99,4795105.59 692367.43,4795100.04"/>
  <poly id="103879958" color="1,0,0" lineWidth="3" shape="692359.59,4795100.08 692357.59,4795101.78"/>
  <poly id="103879959" color="1,0,0" lineWidth="3" shape="692340.26,4795093.30 692350.09,4795104.87"/>
  <poly id="1038865661#3" color="1,0,0" lineWidth="3" shape="689562.14,4805973.10 689587.27,4805956.17 689586.44,4805953.69 689588.20,4805952.35"/>
  <poly id="1038865667" color="1,0,0" lineWidth="3" shape="689492.43,4806021.75 689475.20,4806003.27 689476.86,4805995.48"/>
  <poly id="1038865668" color="1,0,0" lineWidth="3" shape="689558.49,4805971.89 689546.38,4805954.65 689535.59,4805950.39"/>
  <poly id="1038865683#1" color="1,0,0" lineWidth="3" shape="689047.82,4806328.31 689047.27,4806331.85"/>
  <poly id="103887613" color="1,0,0" lineWidth="3" shape="692282.69,4794962.51 692277.34,4794963.71 692272.89,4794964.81 692269.01,4794963.35 692265.71,4794962.89 692261.07,4794961.90 692260.04,4794961.90"/>
  <poly id="1039351252" color="1,0,0" lineWidth="3" shape="694692.07,4796254.79 694692.37,4796256.83"/>
  <poly id="104129276" color="1,0,0" lineWidth="3" shape="695540.28,4796963.02 695539.24,4796964.28"/>
  <poly id="104129277" color="1,0,0" lineWidth="3" shape="695442.28,4796983.37 695478.33,4796917.82 695482.47,4796914.01 695489.90,4796917.40"/>
  <poly id="104129278" color="1,0,0" lineWidth="3" shape="695539.97,4796959.49 695492.64,4796919.15"/>
  <poly id="1041558665#4" color="1,0,0" lineWidth="3" shape="690847.06,4800710.03 690847.22,4800708.53 690848.99,4800700.93 690852.08,4800692.54"/>
  <poly id="1041558669" color="1,0,0" lineWidth="3" shape="690849.47,4800676.40 690850.30,4800676.79"/>
  <poly id="1041558675#0" color="1,0,0" lineWidth="3" shape="690919.98,4800850.87 690916.45,4800853.17"/>
  <poly id="1041558676#0" color="1,0,0" lineWidth="3" shape="690899.03,4800854.56 690902.60,4800859.54"/>
  <poly id="1041910652#1" color="1,0,0" lineWidth="3" shape="690617.04,4802518.40 690627.04,4802519.11"/>
  <poly id="1041910653" color="1,0,0" lineWidth="3" shape="690617.47,4802516.02 690615.72,4802515.93"/>
  <poly id="1043656025" color="1,0,0" lineWidth="3" shape="692542.04,4793031.36 692538.23,4793031.00 692524.34,4793019.25 692520.86,4793016.42 692518.72,4793012.77 692516.05,4793003.66 692514.60,4792997.58 692514.02,4792994.07"/>
  <poly id="1043698430" color="1,0,0" lineWidth="3" shape="692774.10,4792436.28 692770.57,4792436.46 692754.05,4792426.13 692749.95,4792427.99 692725.75,4792409.67 692691.24,4792375.10 692670.75,4792351.26"/>
  <poly id="1043700476" color="1,0,0" lineWidth="3" shape="692518.47,4792426.77 692534.51,4792442.12"/>
  <poly id="1043700477" color="1,0,0" lineWidth="3" shape="692577.77,4792484.35 692564.78,4792468.83"/>
  <poly id="1044562538#0" color="1,0,0" lineWidth="3" shape="689377.90,4803951.45 689384.14,4803954.88 689392.45,4803939.42"/>
  <poly id="1044562539" color="1,0,0" lineWidth="3" shape="689386.37,4803933.12 689391.42,4803935.99"/>
  <poly id="1044562545" color="1,0,0" lineWidth="3" shape="689309.60,4803923.86 689309.46,4803924.37 689309.91,4803925.12 689315.90,4803928.45 689319.66,4803929.67 689320.51,4803929.62 689321.37,4803929.04 689326.96,4803923.14 689327.15,4803922.92"/>
  <poly id="1044562546" color="1,0,0" lineWidth="3" shape="689323.10,4803932.47 689327.01,4803926.97"/>
  <poly id="1044562547" color="1,0,0" lineWidth="3" shape="689337.00,4803932.30 689338.17,4803940.52"/>
  <poly id="1046331236" color="1,0,0" lineWidth="3" shape="683130.40,4801336.78 683129.90,4801331.17"/>
  <poly id="1047626210" color="1,0,0" lineWidth="3" shape="689871.15,4787282.17 689863.83,4787286.57 689861.92,4787292.70 689857.48,4787295.19 689850.95,4787295.01 689838.56,4787297.38 689827.11,4787301.29 689820.99,4787301.89"/>
  <poly id="1047626214" color="1,0,0" lineWidth="3" shape="690933.68,4788955.45 690930.68,4788941.68 690941.77,4788944.30"/>
  <poly id="1047626218" color="1,0,0" lineWidth="3" shape="690933.91,4788958.70 690933.80,4788960.09 690933.68,4788960.37"/>
  <poly id="1049659749" color="1,0,0" lineWidth="3" shape="687570.89,4803806.00 687571.43,4803805.11 687565.07,4803800.82"/>
  <poly id="1049691078" color="1,0,0" lineWidth="3" shape="690272.16,4800857.68 690252.91,4800857.58 690251.98,4800815.05"/>
  <poly id="1049691080" color="1,0,0" lineWidth="3" shape="690275.10,4800857.65 690345.90,4800855.62 690346.28,4800853.78 690347.16,4800852.53 690349.17,4800851.68 690361.23,4800849.86 690371.15,4800848.72 690382.48,4800848.10 690408.73,4800847.22 690413.03,4800848.15 690416.72,4800849.91 690420.36,4800851.99 690424.42,4800855.12"/>
  <poly id="1049714658" color="1,0,0" lineWidth="3" shape="692384.62,4795042.41 692389.23,4795038.64"/>
  <poly id="1049884468" color="1,0,0" lineWidth="3" shape="694728.25,4794066.22 694701.18,4794054.32"/>
  <poly id="1050412433#1" color="1,0,0" lineWidth="3" shape="696852.86,4787141.63 696853.07,4787137.32 696855.80,4787133.13"/>
  <poly id="1051044429" color="1,0,0" lineWidth="3" shape="695451.01,4793176.35 695450.32,4793174.86 695449.69,4793174.22 695452.00,4793169.73 695451.16,4793169.19"/>
  <poly id="1051069426#0" color="1,0,0" lineWidth="3" shape="695347.21,4800215.96 695350.53,4800215.46 695352.93,4800216.27 695355.06,4800218.65 695356.15,4800221.47 695356.18,4800226.41"/>
  <poly id="1051069427" color="1,0,0" lineWidth="3" shape="694647.29,4800151.76 694647.57,4800151.79 694658.51,4800156.44 694684.48,4800171.32 694686.71,4800173.14 694687.65,4800175.24"/>
  <poly id="1051069431#3" color="1,0,0" lineWidth="3" shape="694527.34,4800082.64 694548.06,4800094.35 694562.16,4800102.94 694574.36,4800110.31"/>
  <poly id="1051069433#0" color="1,0,0" lineWidth="3" shape="694541.13,4800114.30 694545.87,4800117.16"/>
  <poly id="1051069433#2" color="1,0,0" lineWidth="3" shape="694566.10,4800128.29 694572.32,4800132.25 694575.45,4800135.69 694576.03,4800137.14"/>
  <poly id="1051274890" color="1,0,0" lineWidth="3" shape="692445.04,4798563.90 692443.64,4798552.35"/>
  <poly id="1051274891" color="1,0,0" lineWidth="3" shape="692443.39,4798564.12 692441.81,4798552.75"/>
  <poly id="1051274892" color="1,0,0" lineWidth="3" shape="692447.30,4798585.99 692448.59,4798596.17"/>
  <poly id="1051544707#1" color="1,0,0" lineWidth="3" shape="694873.57,4800170.03 694864.23,4800154.52 694853.18,4800139.70"/>
  <poly id="1052678993" color="1,0,0" lineWidth="3" shape="690530.84,4800843.85 690550.31,4800838.20 690554.58,4800837.28"/>
  <poly id="1052678994" color="1,0,0" lineWidth="3" shape="690508.20,4800856.53 690516.49,4800851.30"/>
  <poly id="1052679003" color="1,0,0" lineWidth="3" shape="690356.63,4801110.69 690355.10,4801109.37 690353.43,4801107.10 690352.48,4801104.88"/>
  <poly id="1053388018#1" color="1,0,0" lineWidth="3" shape="696098.87,4800236.79 696093.89,4800237.36"/>
  <poly id="1053413961" color="1,0,0" lineWidth="3" shape="695458.31,4792122.73 695462.73,4792119.91"/>
  <poly id="1053432819" color="1,0,0" lineWidth="3" shape="695428.25,4792247.89 695415.31,4792252.25 695404.54,4792255.30 695402.62,4792255.32"/>
  <poly id="1053432820#2" color="1,0,0" lineWidth="3" shape="695374.63,4792146.41 695375.32,4792148.35 695377.25,4792152.00"/>
  <poly id="1053432822" color="1,0,0" lineWidth="3" shape="695398.67,4792275.93 695400.09,4792280.01"/>
  <poly id="1053432824" color="1,0,0" lineWidth="3" shape="695354.39,4792224.58 695355.23,4792227.26"/>
  <poly id="1053432826" color="1,0,0" lineWidth="3" shape="695373.12,4792177.28 695373.86,4792179.58"/>
  <poly id="1053432827" color="1,0,0" lineWidth="3" shape="695376.27,4792208.64 695379.18,4792207.69"/>
  <poly id="1053677073" color="1,0,0" lineWidth="3" shape="691613.21,4804847.60 691617.85,4804859.58 691617.56,4804861.62"/>
  <poly id="1054417513" color="1,0,0" lineWidth="3" shape="692307.52,4793379.51 692303.54,4793369.12"/>
  <poly id="1054518764" color="1,0,0" lineWidth="3" shape="695284.74,4792102.97 695288.60,4792101.77"/>
  <poly id="1054518766" color="1,0,0" lineWidth="3" shape="695270.68,4792110.71 695276.39,4792109.03"/>
  <poly id="1056055553" color="1,0,0" lineWidth="3" shape="694696.30,4794445.89 694695.13,4794454.33 694683.88,4794454.10"/>
  <poly id="1056079735#0" color="1,0,0" lineWidth="3" shape="690673.24,4788513.27 690675.08,4788518.24 690677.85,4788520.93 690689.50,4788524.23 690691.71,4788524.34 690694.51,4788522.91 690702.00,4788511.60 690703.77,4788504.55 690703.61,4788498.94"/>
  <poly id="1056079735#1" color="1,0,0" lineWidth="3" shape="690701.79,4788494.29 690700.12,4788490.13 690697.02,4788487.48 690690.32,4788485.04 690686.30,4788485.85 690679.80,4788486.08 690676.59,4788485.86 690673.87,4788492.52 690673.56,4788493.89"/>
  <poly id="1056079737" color="1,0,0" lineWidth="3" shape="690716.26,4788496.57 690716.20,4788496.23 690715.61,4788494.38 690714.96,4788494.77"/>
  <poly id="1056115958#0" color="1,0,0" lineWidth="3" shape="696441.85,4794182.39 696441.79,4794182.31"/>
  <poly id="1056272110" color="1,0,0" lineWidth="3" shape="694604.64,4799881.66 694619.30,4799869.06 694625.14,4799861.26 694628.77,4799854.96 694629.55,4799851.22 694629.07,4799847.39 694626.45,4799842.27 694620.55,4799837.22 694617.05,4799834.86"/>
  <poly id="1056272131" color="1,0,0" lineWidth="3" shape="694600.59,4799760.31 694605.40,4799758.67 694609.00,4799758.07 694609.50,4799760.11 694609.54,4799760.27"/>
  <poly id="1056381344" color="1,0,0" lineWidth="3" shape="692540.78,4798844.77 692538.84,4798840.79"/>
  <poly id="1056381345" color="1,0,0" lineWidth="3" shape="692562.21,4798917.99 692562.78,4798913.62 692561.50,4798908.97 692562.73,4798905.43 692553.29,4798879.73 692547.26,4798858.08 692540.91,4798845.04"/>
  <poly id="1056661990" color="1,0,0" lineWidth="3" shape="692782.09,4798775.89 692776.84,4798769.01 692747.10,4798763.86 692731.87,4798766.10 692725.18,4798763.96"/>
  <poly id="1057373238" color="1,0,0" lineWidth="3" shape="691173.96,4787078.28 691173.82,4787073.72"/>
  <poly id="1057384764" color="1,0,0" lineWidth="3" shape="691360.02,4786922.31 691358.92,4786921.52"/>
  <poly id="1057815680" color="1,0,0" lineWidth="3" shape="697241.59,4794319.34 697307.47,4794288.35 697318.85,4794275.11 697318.94,4794268.50"/>
  <poly id="1058532349#1" color="1,0,0" lineWidth="3" shape="696420.52,4797989.87 696415.22,4797991.01"/>
  <poly id="1058532357" color="1,0,0" lineWidth="3" shape="696466.04,4798013.69 696476.89,4798011.52"/>
  <poly id="106136855" color="1,0,0" lineWidth="3" shape="704812.40,4787369.85 704814.16,4787364.77"/>
  <poly id="1063321062#0" color="1,0,0" lineWidth="3" shape="690653.26,4804787.55 690664.10,4804772.86"/>
  <poly id="1064468128" color="1,0,0" lineWidth="3" shape="693595.20,4792413.37 693598.00,4792414.24"/>
  <poly id="1064468151#2" color="1,0,0" lineWidth="3" shape="693544.32,4792344.04 693552.46,4792345.01"/>
  <poly id="1064468156" color="1,0,0" lineWidth="3" shape="693609.52,4792398.88 693609.05,4792398.57 693606.40,4792397.05 693603.49,4792397.70 693599.92,4792398.76 693598.57,4792398.43 693598.12,4792397.69 693597.64,4792395.59 693597.80,4792392.98 693598.93,4792389.51 693598.84,4792386.74 693598.62,4792379.58"/>