<?xml version="1.0" encoding="UTF-8"?>

<!-- generated on 2025-03-02 23:03:33 by Eclipse SUMO netedit Version 1.21.0
-->

<routes xmlns:xsi="http://www.w3.org/2001/XMLSchema-instance" xsi:noNamespaceSchemaLocation="http://sumo.dlr.de/xsd/routes_file.xsd">
    <!-- Routes -->
    <route id="r_0" edges="E1 E2"/>
    <!-- Vehicles, persons and containers (sorted by depart) -->
    <vehicle id="1" depart="0.00" color="blue" route="r_0"/>
    <vehicle id="v_0" depart="0.00" route="r_0"/>
</routes>
