<?xml version="1.0" encoding="UTF-8"?>

<!-- generated on 2025-03-02 23:00:26 by Eclipse SUMO sumo Version 1.21.0
-->

<sumoConfiguration xmlns:xsi="http://www.w3.org/2001/XMLSchema-instance" xsi:noNamespaceSchemaLocation="http://sumo.dlr.de/xsd/sumoConfiguration.xsd">

    <input>
        <net-file value="helloWorld.net.xml"/>
        <route-files value="helloWorld.rou.xml"/>
        <additional-files value="helloWorld.add.xml"/>
    </input>

</sumoConfiguration>
