<?xml version="1.0" ?>
<additional xmlns:xsi="http://www.w3.org/2001/XMLSchema-instance" xsi:noNamespaceSchemaLocation="http://sumo.dlr.de/xsd/additional_file.xsd">
  <vTypeDistribution id="carDist">
    <vTypeDistribution id="carDist">
      <vType id="carDist0" vClass="passenger" carFollowModel="EIDM" tau="1.07" sigma="0.40" accel="3.23" decel="4.36" length="4.01" minGap="2.78" maxSpeed="11.55" speedDev="0.08" width="1.85" height="1.47" mass="1776.78">
        <param key="speedFactor" value="1.08"/>
        <param key="guiShape" value="choice(passenger/sedan|passenger/SUV|passenger/hatchback)"/>
        <param key="color" value="randomColor"/>
      </vType>
      <vType id="carDist1" vClass="passenger" carFollowModel="EIDM" tau="1.39" sigma="0.60" accel="3.34" decel="4.95" length="4.00" minGap="2.30" maxSpeed="12.87" speedDev="0.03" width="1.84" height="1.47" mass="1694.92">
        <param key="speedFactor" value="0.79"/>
        <param key="guiShape" value="choice(passenger/sedan|passenger/SUV|passenger/hatchback)"/>
        <param key="color" value="randomColor"/>
      </vType>
      <vType id="carDist2" vClass="passenger" carFollowModel="EIDM" tau="0.72" sigma="0.56" accel="2.38" decel="5.44" length="4.72" minGap="3.16" maxSpeed="12.82" speedDev="0.06" width="1.70" height="1.61" mass="1505.39">
        <param key="speedFactor" value="1.11"/>
        <param key="guiShape" value="choice(passenger/sedan|passenger/SUV|passenger/hatchback)"/>
        <param key="color" value="randomColor"/>
      </vType>
      <vType id="carDist3" vClass="passenger" carFollowModel="EIDM" tau="0.96" sigma="0.85" accel="3.19" decel="4.59" length="4.64" minGap="2.40" maxSpeed="12.26" speedDev="0.02" width="1.70" height="1.52" mass="1793.31">
        <param key="speedFactor" value="1.10"/>
        <param key="guiShape" value="choice(passenger/sedan|passenger/SUV|passenger/hatchback)"/>
        <param key="color" value="randomColor"/>
      </vType>
      <vType id="carDist4" vClass="passenger" carFollowModel="EIDM" tau="0.89" sigma="0.22" accel="2.86" decel="4.41" length="4.42" minGap="2.62" maxSpeed="12.40" speedDev="0.10" width="1.85" height="1.50" mass="1285.94">
        <param key="speedFactor" value="1.02"/>
        <param key="guiShape" value="choice(passenger/sedan|passenger/SUV|passenger/hatchback)"/>
        <param key="color" value="randomColor"/>
      </vType>
      <vType id="carDist5" vClass="passenger" carFollowModel="EIDM" tau="0.85" sigma="0.56" accel="2.12" decel="4.87" length="4.62" minGap="3.77" maxSpeed="12.71" speedDev="0.04" width="1.78" height="1.62" mass="1424.15">
        <param key="speedFactor" value="1.08"/>
        <param key="guiShape" value="choice(passenger/sedan|passenger/SUV|passenger/hatchback)"/>
        <param key="color" value="randomColor"/>
      </vType>
      <vType id="carDist6" vClass="passenger" carFollowModel="EIDM" tau="0.71" sigma="0.46" accel="2.25" decel="4.59" length="4.86" minGap="2.48" maxSpeed="13.53" speedDev="0.04" width="1.89" height="1.19" mass="1632.99">
        <param key="speedFactor" value="1.03"/>
        <param key="guiShape" value="choice(passenger/sedan|passenger/SUV|passenger/hatchback)"/>
        <param key="color" value="randomColor"/>
      </vType>
      <vType id="carDist7" vClass="passenger" carFollowModel="EIDM" tau="1.14" sigma="0.56" accel="2.96" decel="3.17" length="4.70" minGap="1.96" maxSpeed="14.60" speedDev="0.06" width="1.86" height="1.32" mass="1277.42">
        <param key="speedFactor" value="1.04"/>
        <param key="guiShape" value="choice(passenger/sedan|passenger/SUV|passenger/hatchback)"/>
        <param key="color" value="randomColor"/>
      </vType>
      <vType id="carDist8" vClass="passenger" carFollowModel="EIDM" tau="0.62" sigma="0.23" accel="2.13" decel="4.23" length="5.47" minGap="2.89" maxSpeed="10.87" speedDev="0.03" width="1.86" height="1.36" mass="1262.51">
        <param key="speedFactor" value="0.88"/>
        <param key="guiShape" value="choice(passenger/sedan|passenger/SUV|passenger/hatchback)"/>
        <param key="color" value="randomColor"/>
      </vType>
      <vType id="carDist9" vClass="passenger" carFollowModel="EIDM" tau="1.38" sigma="0.18" accel="2.68" decel="4.97" length="4.58" minGap="2.04" maxSpeed="12.56" speedDev="0.01" width="1.76" height="1.57" mass="1665.82">
        <param key="speedFactor" value="0.74"/>
        <param key="guiShape" value="choice(passenger/sedan|passenger/SUV|passenger/hatchback)"/>
        <param key="color" value="randomColor"/>
      </vType>
      <vType id="carDist10" vClass="passenger" carFollowModel="EIDM" tau="0.97" sigma="0.63" accel="1.51" decel="5.61" length="4.70" minGap="3.04" maxSpeed="11.51" speedDev="0.07" width="1.72" height="1.50" mass="1552.89">
        <param key="speedFactor" value="1.16"/>
        <param key="guiShape" value="choice(passenger/sedan|passenger/SUV|passenger/hatchback)"/>
        <param key="color" value="randomColor"/>
      </vType>
      <vType id="carDist11" vClass="passenger" carFollowModel="EIDM" tau="1.44" sigma="0.59" accel="2.39" decel="6.63" length="4.25" minGap="2.37" maxSpeed="13.09" speedDev="0.04" width="1.98" height="1.42" mass="1414.09">
        <param key="speedFactor" value="1.05"/>
        <param key="guiShape" value="choice(passenger/sedan|passenger/SUV|passenger/hatchback)"/>
        <param key="color" value="randomColor"/>
      </vType>
      <vType id="carDist12" vClass="passenger" carFollowModel="EIDM" tau="0.96" sigma="0.41" accel="2.91" decel="3.03" length="4.67" minGap="3.60" maxSpeed="14.65" speedDev="0.02" width="1.77" height="1.37" mass="1582.90">
        <param key="speedFactor" value="1.07"/>
        <param key="guiShape" value="choice(passenger/sedan|passenger/SUV|passenger/hatchback)"/>
        <param key="color" value="randomColor"/>
      </vType>
      <vType id="carDist13" vClass="passenger" carFollowModel="EIDM" tau="0.62" sigma="0.60" accel="2.52" decel="6.13" length="3.99" minGap="3.05" maxSpeed="17.00" speedDev="0.10" width="2.13" height="1.67" mass="1727.88">
        <param key="speedFactor" value="1.13"/>
        <param key="guiShape" value="choice(passenger/sedan|passenger/SUV|passenger/hatchback)"/>
        <param key="color" value="randomColor"/>
      </vType>
      <vType id="carDist14" vClass="passenger" carFollowModel="EIDM" tau="0.98" sigma="0.26" accel="3.08" decel="4.80" length="3.99" minGap="2.21" maxSpeed="14.05" speedDev="0.02" width="1.91" height="1.37" mass="1537.54">
        <param key="speedFactor" value="0.91"/>
        <param key="guiShape" value="choice(passenger/sedan|passenger/SUV|passenger/hatchback)"/>
        <param key="color" value="randomColor"/>
      </vType>
      <vType id="carDist15" vClass="passenger" carFollowModel="EIDM" tau="1.50" sigma="0.97" accel="2.97" decel="3.19" length="5.17" minGap="2.97" maxSpeed="14.34" speedDev="0.02" width="1.79" height="1.41" mass="1441.02">
        <param key="speedFactor" value="0.99"/>
        <param key="guiShape" value="choice(passenger/sedan|passenger/SUV|passenger/hatchback)"/>
        <param key="color" value="randomColor"/>
      </vType>
      <vType id="carDist16" vClass="passenger" carFollowModel="EIDM" tau="1.06" sigma="0.42" accel="2.02" decel="3.26" length="4.13" minGap="2.86" maxSpeed="19.03" speedDev="0.03" width="1.73" height="1.64" mass="1295.25">
        <param key="speedFactor" value="1.07"/>
        <param key="guiShape" value="choice(passenger/sedan|passenger/SUV|passenger/hatchback)"/>
        <param key="color" value="randomColor"/>
      </vType>
      <vType id="carDist17" vClass="passenger" carFollowModel="EIDM" tau="0.52" sigma="0.61" accel="2.96" decel="3.32" length="4.19" minGap="2.62" maxSpeed="14.28" speedDev="0.10" width="1.87" height="1.48" mass="1504.66">
        <param key="speedFactor" value="1.14"/>
        <param key="guiShape" value="choice(passenger/sedan|passenger/SUV|passenger/hatchback)"/>
        <param key="color" value="randomColor"/>
      </vType>
      <vType id="carDist18" vClass="passenger" carFollowModel="EIDM" tau="1.19" sigma="0.09" accel="2.66" decel="4.09" length="3.16" minGap="2.93" maxSpeed="13.58" speedDev="0.04" width="1.73" height="1.58" mass="2155.03">
        <param key="speedFactor" value="1.07"/>
        <param key="guiShape" value="choice(passenger/sedan|passenger/SUV|passenger/hatchback)"/>
        <param key="color" value="randomColor"/>
      </vType>
      <vType id="carDist19" vClass="passenger" carFollowModel="EIDM" tau="1.43" sigma="0.60" accel="2.88" decel="2.95" length="4.10" minGap="2.45" maxSpeed="12.88" speedDev="0.03" width="1.85" height="1.45" mass="1320.30">
        <param key="speedFactor" value="1.03"/>
        <param key="guiShape" value="choice(passenger/sedan|passenger/SUV|passenger/hatchback)"/>
        <param key="color" value="randomColor"/>
      </vType>
      <vType id="carDist20" vClass="passenger" carFollowModel="EIDM" tau="0.79" sigma="0.48" accel="3.46" decel="4.09" length="4.16" minGap="2.54" maxSpeed="14.67" speedDev="0.09" width="1.79" height="1.52" mass="1462.44">
        <param key="speedFactor" value="0.98"/>
        <param key="guiShape" value="choice(passenger/sedan|passenger/SUV|passenger/hatchback)"/>
        <param key="color" value="randomColor"/>
      </vType>
      <vType id="carDist21" vClass="passenger" carFollowModel="EIDM" tau="0.94" sigma="0.55" accel="1.91" decel="5.37" length="4.01" minGap="2.42" maxSpeed="12.13" speedDev="0.06" width="1.74" height="1.53" mass="1568.12">
        <param key="speedFactor" value="0.84"/>
        <param key="guiShape" value="choice(passenger/sedan|passenger/SUV|passenger/hatchback)"/>
        <param key="color" value="randomColor"/>
      </vType>
      <vType id="carDist22" vClass="passenger" carFollowModel="EIDM" tau="1.19" sigma="0.76" accel="2.46" decel="7.27" length="4.09" minGap="3.00" maxSpeed="13.06" speedDev="0.07" width="1.80" height="1.48" mass="1358.61">
        <param key="speedFactor" value="1.26"/>
        <param key="guiShape" value="choice(passenger/sedan|passenger/SUV|passenger/hatchback)"/>
        <param key="color" value="randomColor"/>
      </vType>
      <vType id="carDist23" vClass="passenger" carFollowModel="EIDM" tau="1.25" sigma="1.12" accel="1.94" decel="4.95" length="3.96" minGap="2.07" maxSpeed="15.72" speedDev="0.07" width="1.92" height="1.49" mass="1398.40">
        <param key="speedFactor" value="1.01"/>
        <param key="guiShape" value="choice(passenger/sedan|passenger/SUV|passenger/hatchback)"/>
        <param key="color" value="randomColor"/>
      </vType>
      <vType id="carDist24" vClass="passenger" carFollowModel="EIDM" tau="0.75" sigma="0.73" accel="2.88" decel="5.67" length="4.32" minGap="2.62" maxSpeed="11.28" speedDev="0.06" width="1.93" height="1.50" mass="1506.28">
        <param key="speedFactor" value="0.90"/>
        <param key="guiShape" value="choice(passenger/sedan|passenger/SUV|passenger/hatchback)"/>
        <param key="color" value="randomColor"/>
      </vType>
      <vType id="carDist25" vClass="passenger" carFollowModel="EIDM" tau="0.23" sigma="0.52" accel="3.03" decel="5.35" length="5.26" minGap="2.88" maxSpeed="12.22" speedDev="0.10" width="1.80" height="1.51" mass="1558.52">
        <param key="speedFactor" value="0.99"/>
        <param key="guiShape" value="choice(passenger/sedan|passenger/SUV|passenger/hatchback)"/>
        <param key="color" value="randomColor"/>
      </vType>
      <vType id="carDist26" vClass="passenger" carFollowModel="EIDM" tau="0.47" sigma="0.53" accel="3.31" decel="5.37" length="5.28" minGap="3.32" maxSpeed="10.70" speedDev="0.06" width="1.78" height="1.47" mass="1365.79">
        <param key="speedFactor" value="0.89"/>
        <param key="guiShape" value="choice(passenger/sedan|passenger/SUV|passenger/hatchback)"/>
        <param key="color" value="randomColor"/>
      </vType>
      <vType id="carDist27" vClass="passenger" carFollowModel="EIDM" tau="1.37" sigma="0.69" accel="3.10" decel="3.38" length="5.92" minGap="2.44" maxSpeed="17.49" speedDev="0.04" width="1.74" height="1.37" mass="1663.54">
        <param key="speedFactor" value="1.17"/>
        <param key="guiShape" value="choice(passenger/sedan|passenger/SUV|passenger/hatchback)"/>
        <param key="color" value="randomColor"/>
      </vType>
      <vType id="carDist28" vClass="passenger" carFollowModel="EIDM" tau="0.66" sigma="0.39" accel="2.07" decel="3.86" length="4.71" minGap="2.08" maxSpeed="13.81" speedDev="0.06" width="1.84" height="1.54" mass="1632.42">
        <param key="speedFactor" value="1.04"/>
        <param key="guiShape" value="choice(passenger/sedan|passenger/SUV|passenger/hatchback)"/>
        <param key="color" value="randomColor"/>
      </vType>
      <vType id="carDist29" vClass="passenger" carFollowModel="EIDM" tau="1.29" sigma="0.76" accel="2.25" decel="5.14" length="5.06" minGap="3.28" maxSpeed="17.80" speedDev="0.03" width="1.78" height="1.54" mass="1082.42">
        <param key="speedFactor" value="0.94"/>
        <param key="guiShape" value="choice(passenger/sedan|passenger/SUV|passenger/hatchback)"/>
        <param key="color" value="randomColor"/>
      </vType>
      <vType id="carDist30" vClass="passenger" carFollowModel="EIDM" tau="1.71" sigma="0.62" accel="2.98" decel="5.58" length="5.54" minGap="2.34" maxSpeed="11.69" speedDev="0.00" width="1.81" height="1.59" mass="1745.07">
        <param key="speedFactor" value="1.15"/>
        <param key="guiShape" value="choice(passenger/sedan|passenger/SUV|passenger/hatchback)"/>
        <param key="color" value="randomColor"/>
      </vType>
      <vType id="carDist31" vClass="passenger" carFollowModel="EIDM" tau="1.27" sigma="0.70" accel="2.51" decel="5.60" length="4.49" minGap="2.38" maxSpeed="12.81" speedDev="0.02" width="1.78" height="1.50" mass="1380.29">
        <param key="speedFactor" value="1.34"/>
        <param key="guiShape" value="choice(passenger/sedan|passenger/SUV|passenger/hatchback)"/>
        <param key="color" value="randomColor"/>
      </vType>
      <vType id="carDist32" vClass="passenger" carFollowModel="EIDM" tau="0.88" sigma="0.38" accel="3.15" decel="5.28" length="4.59" minGap="2.83" maxSpeed="10.94" speedDev="0.01" width="1.86" height="1.47" mass="1715.66">
        <param key="speedFactor" value="0.92"/>
        <param key="guiShape" value="choice(passenger/sedan|passenger/SUV|passenger/hatchback)"/>
        <param key="color" value="randomColor"/>
      </vType>
      <vType id="carDist33" vClass="passenger" carFollowModel="EIDM" tau="0.51" sigma="0.63" accel="2.42" decel="4.68" length="4.41" minGap="2.51" maxSpeed="14.13" speedDev="0.00" width="1.81" height="1.49" mass="1687.90">
        <param key="speedFactor" value="0.82"/>
        <param key="guiShape" value="choice(passenger/sedan|passenger/SUV|passenger/hatchback)"/>
        <param key="color" value="randomColor"/>
      </vType>
      <vType id="carDist34" vClass="passenger" carFollowModel="EIDM" tau="0.69" sigma="0.60" accel="2.65" decel="4.70" length="5.68" minGap="3.06" maxSpeed="14.86" speedDev="0.05" width="1.73" height="1.49" mass="1136.46">
        <param key="speedFactor" value="1.05"/>
        <param key="guiShape" value="choice(passenger/sedan|passenger/SUV|passenger/hatchback)"/>
        <param key="color" value="randomColor"/>
      </vType>
      <vType id="carDist35" vClass="passenger" carFollowModel="EIDM" tau="1.65" sigma="0.55" accel="2.68" decel="3.50" length="5.07" minGap="2.20" maxSpeed="11.02" speedDev="0.02" width="1.70" height="1.57" mass="1924.09">
        <param key="speedFactor" value="1.03"/>
        <param key="guiShape" value="choice(passenger/sedan|passenger/SUV|passenger/hatchback)"/>
        <param key="color" value="randomColor"/>
      </vType>
      <vType id="carDist36" vClass="passenger" carFollowModel="EIDM" tau="0.85" sigma="0.60" accel="3.33" decel="4.30" length="4.62" minGap="2.77" maxSpeed="13.47" speedDev="0.04" width="1.97" height="1.51" mass="1686.01">
        <param key="speedFactor" value="0.88"/>
        <param key="guiShape" value="choice(passenger/sedan|passenger/SUV|passenger/hatchback)"/>
        <param key="color" value="randomColor"/>
      </vType>
      <vType id="carDist37" vClass="passenger" carFollowModel="EIDM" tau="0.99" sigma="0.18" accel="2.02" decel="3.34" length="4.47" minGap="1.86" maxSpeed="14.23" speedDev="0.03" width="1.74" height="1.44" mass="1230.71">
        <param key="speedFactor" value="1.07"/>
        <param key="guiShape" value="choice(passenger/sedan|passenger/SUV|passenger/hatchback)"/>
        <param key="color" value="randomColor"/>
      </vType>
      <vType id="carDist38" vClass="passenger" carFollowModel="EIDM" tau="1.09" sigma="0.62" accel="1.84" decel="5.71" length="4.89" minGap="2.66" maxSpeed="13.37" speedDev="0.03" width="1.77" height="1.50" mass="1554.44">
        <param key="speedFactor" value="0.91"/>
        <param key="guiShape" value="choice(passenger/sedan|passenger/SUV|passenger/hatchback)"/>
        <param key="color" value="randomColor"/>
      </vType>
      <vType id="carDist39" vClass="passenger" carFollowModel="EIDM" tau="0.84" sigma="0.24" accel="3.25" decel="4.46" length="4.90" minGap="3.34" maxSpeed="15.13" speedDev="0.09" width="1.83" height="1.37" mass="1360.09">
        <param key="speedFactor" value="0.85"/>
        <param key="guiShape" value="choice(passenger/sedan|passenger/SUV|passenger/hatchback)"/>
        <param key="color" value="randomColor"/>
      </vType>
      <vType id="carDist40" vClass="passenger" carFollowModel="EIDM" tau="0.82" sigma="0.82" accel="2.61" decel="4.95" length="5.12" minGap="3.26" maxSpeed="12.72" speedDev="0.02" width="1.90" height="1.57" mass="1275.98">
        <param key="speedFactor" value="0.98"/>
        <param key="guiShape" value="choice(passenger/sedan|passenger/SUV|passenger/hatchback)"/>
        <param key="color" value="randomColor"/>
      </vType>
      <vType id="carDist41" vClass="passenger" carFollowModel="EIDM" tau="1.01" sigma="0.44" accel="2.48" decel="5.30" length="4.64" minGap="1.83" maxSpeed="19.63" speedDev="0.09" width="1.73" height="1.41" mass="1362.69">
        <param key="speedFactor" value="1.11"/>
        <param key="guiShape" value="choice(passenger/sedan|passenger/SUV|passenger/hatchback)"/>
        <param key="color" value="randomColor"/>
      </vType>
      <vType id="carDist42" vClass="passenger" carFollowModel="EIDM" tau="0.70" sigma="0.83" accel="3.68" decel="5.17" length="4.72" minGap="2.31" maxSpeed="12.49" speedDev="0.09" width="1.80" height="1.38" mass="1195.35">
        <param key="speedFactor" value="1.24"/>
        <param key="guiShape" value="choice(passenger/sedan|passenger/SUV|passenger/hatchback)"/>
        <param key="color" value="randomColor"/>
      </vType>
      <vType id="carDist43" vClass="passenger" carFollowModel="EIDM" tau="0.69" sigma="0.41" accel="2.19" decel="3.03" length="4.41" minGap="1.65" maxSpeed="13.25" speedDev="0.04" width="1.79" height="1.46" mass="1679.95">
        <param key="speedFactor" value="0.88"/>
        <param key="guiShape" value="choice(passenger/sedan|passenger/SUV|passenger/hatchback)"/>
        <param key="color" value="randomColor"/>
      </vType>
      <vType id="carDist44" vClass="passenger" carFollowModel="EIDM" tau="1.43" sigma="0.67" accel="2.91" decel="2.50" length="4.07" minGap="2.37" maxSpeed="10.81" speedDev="0.02" width="1.94" height="1.67" mass="1673.89">
        <param key="speedFactor" value="0.79"/>
        <param key="guiShape" value="choice(passenger/sedan|passenger/SUV|passenger/hatchback)"/>
        <param key="color" value="randomColor"/>
      </vType>
      <vType id="carDist45" vClass="passenger" carFollowModel="EIDM" tau="1.12" sigma="0.63" accel="1.33" decel="4.81" length="4.53" minGap="2.24" maxSpeed="11.22" speedDev="0.08" width="1.79" height="1.67" mass="1344.92">
        <param key="speedFactor" value="0.97"/>
        <param key="guiShape" value="choice(passenger/sedan|passenger/SUV|passenger/hatchback)"/>
        <param key="color" value="randomColor"/>
      </vType>
      <vType id="carDist46" vClass="passenger" carFollowModel="EIDM" tau="0.77" sigma="0.56" accel="2.65" decel="4.15" length="4.88" minGap="3.04" maxSpeed="17.41" speedDev="0.03" width="1.63" height="1.57" mass="1768.34">
        <param key="speedFactor" value="1.09"/>
        <param key="guiShape" value="choice(passenger/sedan|passenger/SUV|passenger/hatchback)"/>
        <param key="color" value="randomColor"/>
      </vType>
      <vType id="carDist47" vClass="passenger" carFollowModel="EIDM" tau="1.26" sigma="0.43" accel="3.37" decel="2.78" length="4.09" minGap="2.34" maxSpeed="9.79" speedDev="0.07" width="1.91" height="1.66" mass="1483.16">
        <param key="speedFactor" value="1.02"/>
        <param key="guiShape" value="choice(passenger/sedan|passenger/SUV|passenger/hatchback)"/>
        <param key="color" value="randomColor"/>
      </vType>
      <vType id="carDist48" vClass="passenger" carFollowModel="EIDM" tau="1.13" sigma="0.70" accel="2.66" decel="3.66" length="4.30" minGap="2.37" maxSpeed="15.85" speedDev="0.10" width="1.84" height="1.66" mass="1753.16">
        <param key="speedFactor" value="1.08"/>
        <param key="guiShape" value="choice(passenger/sedan|passenger/SUV|passenger/hatchback)"/>
        <param key="color" value="randomColor"/>
      </vType>
      <vType id="carDist49" vClass="passenger" carFollowModel="EIDM" tau="0.86" sigma="0.61" accel="3.21" decel="5.56" length="4.54" minGap="2.67" maxSpeed="13.88" speedDev="0.06" width="1.74" height="1.50" mass="1831.39">
        <param key="speedFactor" value="1.12"/>
        <param key="guiShape" value="choice(passenger/sedan|passenger/SUV|passenger/hatchback)"/>
        <param key="color" value="randomColor"/>
      </vType>
      <vType id="carDist50" vClass="passenger" carFollowModel="EIDM" tau="1.26" sigma="0.44" accel="2.93" decel="6.59" length="5.01" minGap="2.09" maxSpeed="11.60" speedDev="0.06" width="1.82" height="1.58" mass="2284.15">
        <param key="speedFactor" value="1.04"/>
        <param key="guiShape" value="choice(passenger/sedan|passenger/SUV|passenger/hatchback)"/>
        <param key="color" value="randomColor"/>
      </vType>
      <vType id="carDist51" vClass="passenger" carFollowModel="EIDM" tau="1.14" sigma="0.56" accel="3.30" decel="3.74" length="4.08" minGap="2.77" maxSpeed="15.47" speedDev="0.06" width="1.81" height="1.43" mass="1501.59">
        <param key="speedFactor" value="1.10"/>
        <param key="guiShape" value="choice(passenger/sedan|passenger/SUV|passenger/hatchback)"/>
        <param key="color" value="randomColor"/>
      </vType>
      <vType id="carDist52" vClass="passenger" carFollowModel="EIDM" tau="1.34" sigma="0.62" accel="2.89" decel="5.61" length="4.30" minGap="2.50" maxSpeed="13.59" speedDev="0.07" width="1.76" height="1.37" mass="1489.82">
        <param key="speedFactor" value="1.03"/>
        <param key="guiShape" value="choice(passenger/sedan|passenger/SUV|passenger/hatchback)"/>
        <param key="color" value="randomColor"/>
      </vType>
      <vType id="carDist53" vClass="passenger" carFollowModel="EIDM" tau="1.42" sigma="0.30" accel="2.68" decel="4.42" length="4.26" minGap="2.21" maxSpeed="14.42" speedDev="0.09" width="1.71" height="1.52" mass="1769.90">
        <param key="speedFactor" value="1.01"/>
        <param key="guiShape" value="choice(passenger/sedan|passenger/SUV|passenger/hatchback)"/>
        <param key="color" value="randomColor"/>
      </vType>
      <vType id="carDist54" vClass="passenger" carFollowModel="EIDM" tau="1.46" sigma="0.45" accel="2.56" decel="5.00" length="4.71" minGap="2.00" maxSpeed="17.20" speedDev="0.04" width="1.76" height="1.38" mass="1057.26">
        <param key="speedFactor" value="1.06"/>
        <param key="guiShape" value="choice(passenger/sedan|passenger/SUV|passenger/hatchback)"/>
        <param key="color" value="randomColor"/>
      </vType>
      <vType id="carDist55" vClass="passenger" carFollowModel="EIDM" tau="0.73" sigma="0.61" accel="2.62" decel="3.96" length="4.41" minGap="2.52" maxSpeed="14.35" speedDev="0.10" width="1.86" height="1.34" mass="1557.14">
        <param key="speedFactor" value="0.81"/>
        <param key="guiShape" value="choice(passenger/sedan|passenger/SUV|passenger/hatchback)"/>
        <param key="color" value="randomColor"/>
      </vType>
      <vType id="carDist56" vClass="passenger" carFollowModel="EIDM" tau="0.79" sigma="0.87" accel="1.94" decel="6.67" length="4.74" minGap="2.59" maxSpeed="15.05" speedDev="0.08" width="1.61" height="1.46" mass="1666.28">
        <param key="speedFactor" value="0.93"/>
        <param key="guiShape" value="choice(passenger/sedan|passenger/SUV|passenger/hatchback)"/>
        <param key="color" value="randomColor"/>
      </vType>
      <vType id="carDist57" vClass="passenger" carFollowModel="EIDM" tau="1.18" sigma="0.42" accel="3.14" decel="3.40" length="5.03" minGap="2.93" maxSpeed="12.49" speedDev="0.06" width="1.75" height="1.33" mass="1355.40">
        <param key="speedFactor" value="0.96"/>
        <param key="guiShape" value="choice(passenger/sedan|passenger/SUV|passenger/hatchback)"/>
        <param key="color" value="randomColor"/>
      </vType>
      <vType id="carDist58" vClass="passenger" carFollowModel="EIDM" tau="1.15" sigma="0.40" accel="2.88" decel="4.37" length="4.48" minGap="2.99" maxSpeed="14.67" speedDev="0.06" width="1.82" height="1.56" mass="1574.93">
        <param key="speedFactor" value="0.95"/>
        <param key="guiShape" value="choice(passenger/sedan|passenger/SUV|passenger/hatchback)"/>
        <param key="color" value="randomColor"/>
      </vType>
      <vType id="carDist59" vClass="passenger" carFollowModel="EIDM" tau="1.37" sigma="0.49" accel="3.19" decel="7.22" length="3.67" minGap="2.61" maxSpeed="16.72" speedDev="0.05" width="1.81" height="1.49" mass="1261.97">
        <param key="speedFactor" value="0.99"/>
        <param key="guiShape" value="choice(passenger/sedan|passenger/SUV|passenger/hatchback)"/>
        <param key="color" value="randomColor"/>
      </vType>
      <vType id="carDist60" vClass="passenger" carFollowModel="EIDM" tau="0.39" sigma="0.73" accel="2.87" decel="5.66" length="4.19" minGap="2.30" maxSpeed="12.82" speedDev="0.08" width="1.91" height="1.59" mass="1332.78">
        <param key="speedFactor" value="1.00"/>
        <param key="guiShape" value="choice(passenger/sedan|passenger/SUV|passenger/hatchback)"/>
        <param key="color" value="randomColor"/>
      </vType>
      <vType id="carDist61" vClass="passenger" carFollowModel="EIDM" tau="1.15" sigma="0.32" accel="2.32" decel="4.81" length="4.58" minGap="2.60" maxSpeed="12.61" speedDev="0.08" width="1.77" height="1.33" mass="1001.39">
        <param key="speedFactor" value="1.00"/>
        <param key="guiShape" value="choice(passenger/sedan|passenger/SUV|passenger/hatchback)"/>
        <param key="color" value="randomColor"/>
      </vType>
      <vType id="carDist62" vClass="passenger" carFollowModel="EIDM" tau="0.73" sigma="0.51" accel="1.99" decel="3.07" length="4.98" minGap="2.52" maxSpeed="11.07" speedDev="0.08" width="1.86" height="1.71" mass="1542.22">
        <param key="speedFactor" value="0.97"/>
        <param key="guiShape" value="choice(passenger/sedan|passenger/SUV|passenger/hatchback)"/>
        <param key="color" value="randomColor"/>
      </vType>
      <vType id="carDist63" vClass="passenger" carFollowModel="EIDM" tau="0.59" sigma="0.89" accel="1.83" decel="5.62" length="4.96" minGap="2.60" maxSpeed="13.25" speedDev="0.05" width="1.82" height="1.38" mass="1696.01">
        <param key="speedFactor" value="1.03"/>
        <param key="guiShape" value="choice(passenger/sedan|passenger/SUV|passenger/hatchback)"/>
        <param key="color" value="randomColor"/>
      </vType>
      <vType id="carDist64" vClass="passenger" carFollowModel="EIDM" tau="0.80" sigma="0.59" accel="3.06" decel="5.07" length="4.39" minGap="1.73" maxSpeed="9.96" speedDev="0.07" width="1.72" height="1.54" mass="1380.92">
        <param key="speedFactor" value="1.04"/>
        <param key="guiShape" value="choice(passenger/sedan|passenger/SUV|passenger/hatchback)"/>
        <param key="color" value="randomColor"/>
      </vType>
      <vType id="carDist65" vClass="passenger" carFollowModel="EIDM" tau="0.89" sigma="0.88" accel="2.48" decel="5.87" length="4.23" minGap="2.02" maxSpeed="15.55" speedDev="0.08" width="1.68" height="1.83" mass="1534.05">
        <param key="speedFactor" value="0.94"/>
        <param key="guiShape" value="choice(passenger/sedan|passenger/SUV|passenger/hatchback)"/>
        <param key="color" value="randomColor"/>
      </vType>
      <vType id="carDist66" vClass="passenger" carFollowModel="EIDM" tau="1.14" sigma="0.26" accel="3.30" decel="2.26" length="4.94" minGap="2.36" maxSpeed="11.66" speedDev="0.02" width="1.96" height="1.58" mass="1527.03">
        <param key="speedFactor" value="0.92"/>
        <param key="guiShape" value="choice(passenger/sedan|passenger/SUV|passenger/hatchback)"/>
        <param key="color" value="randomColor"/>
      </vType>
      <vType id="carDist67" vClass="passenger" carFollowModel="EIDM" tau="1.00" sigma="0.81" accel="2.41" decel="4.64" length="4.09" minGap="3.39" maxSpeed="13.56" speedDev="0.03" width="1.68" height="1.50" mass="1628.10">
        <param key="speedFactor" value="1.05"/>
        <param key="guiShape" value="choice(passenger/sedan|passenger/SUV|passenger/hatchback)"/>
        <param key="color" value="randomColor"/>
      </vType>
      <vType id="carDist68" vClass="passenger" carFollowModel="EIDM" tau="0.39" sigma="0.45" accel="2.70" decel="5.72" length="4.02" minGap="1.71" maxSpeed="12.75" speedDev="0.07" width="1.84" height="1.50" mass="1526.90">
        <param key="speedFactor" value="1.01"/>