<?xml version="1.0"?>
<configuration>
  <input>
    <net-file value="dummy.net.xml"/>
    <additional-files value="AMP.poly.xml"/>
  </input>
</configuration>
