<?xml version="1.0" encoding="UTF-8"?>

<!-- generated on 2025-03-17 13:24:19 by Eclipse SUMO polyconvert Version 1.21.0
<polyconvertConfiguration xmlns:xsi="http://www.w3.org/2001/XMLSchema-instance" xsi:noNamespaceSchemaLocation="http://sumo.dlr.de/xsd/polyconvertConfiguration.xsd">

    <input>
        <net-file value="dummy.net.xml"/>
        <shapefile-prefixes value="AMP_final"/>
    </input>

    <output>
        <output-file value="AMP.poly.xml"/>
    </output>

</polyconvertConfiguration>
-->

<additional xmlns:xsi="http://www.w3.org/2001/XMLSchema-instance" xsi:noNamespaceSchemaLocation="http://sumo.dlr.de/xsd/additional_file.xsd">
    <location netOffset="0.00,0.00" convBoundary="-1000.00,-1000.00,1000.00,1000.00" origBoundary="-1000.000000,-1000.000000,1000.000000,1000.000000" projParameter="+proj=longlat +datum=WGS84 +no_defs"/>

    <poly id="0#0" type="unknown" color="51,128,255" fill="1" layer="-1.00" shape="0.098006,0.753322"/>
    <poly id="0#1" type="unknown" color="51,128,255" fill="1" layer="-1.00" shape="0.097607,0.754311"/>
    <poly id="1" type="unknown" color="51,128,255" fill="1" layer="-1.00" shape="0.091259,0.762762"/>
    <poly id="10" type="unknown" color="51,128,255" fill="1" layer="-1.00" shape="0.092402,0.759559"/>
    <poly id="11" type="unknown" color="51,128,255" fill="1" layer="-1.00" shape="0.089886,0.762537"/>
    <poly id="12" type="unknown" color="51,128,255" fill="1" layer="-1.00" shape="0.089468,0.762544"/>
    <poly id="13" type="unknown" color="51,128,255" fill="1" layer="-1.00" shape="0.087068,0.761284"/>
    <poly id="14" type="unknown" color="51,128,255" fill="1" layer="-1.00" shape="0.089142,0.760179"/>
    <poly id="15" type="unknown" color="51,128,255" fill="1" layer="-1.00" shape="0.091211,0.760376"/>
    <poly id="16" type="unknown" color="51,128,255" fill="1" layer="-1.00" shape="0.091211,0.760376"/>
    <poly id="17" type="unknown" color="51,128,255" fill="1" layer="-1.00" shape="0.089534,0.761349"/>
    <poly id="18" type="unknown" color="51,128,255" fill="1" layer="-1.00" shape="0.090171,0.761458"/>
    <poly id="19" type="unknown" color="51,128,255" fill="1" layer="-1.00" shape="0.087500,0.760197"/>
    <poly id="2" type="unknown" color="51,128,255" fill="1" layer="-1.00" shape="0.093643,0.761396"/>
    <poly id="20" type="unknown" color="51,128,255" fill="1" layer="-1.00" shape="0.088036,0.760828"/>
    <poly id="21" type="unknown" color="51,128,255" fill="1" layer="-1.00" shape="0.088360,0.760238"/>
    <poly id="22" type="unknown" color="51,128,255" fill="1" layer="-1.00" shape="0.087652,0.760198"/>
    <poly id="23" type="unknown" color="51,128,255" fill="1" layer="-1.00" shape="0.090311,0.763378"/>
    <poly id="24" type="unknown" color="51,128,255" fill="1" layer="-1.00" shape="0.089468,0.762544"/>
    <poly id="25" type="unknown" color="51,128,255" fill="1" layer="-1.00" shape="0.089452,0.763223"/>
    <poly id="26" type="unknown" color="51,128,255" fill="1" layer="-1.00" shape="0.088369,0.763085"/>
    <poly id="27" type="unknown" color="51,128,255" fill="1" layer="-1.00" shape="0.086651,0.763063"/>
    <poly id="28" type="unknown" color="51,128,255" fill="1" layer="-1.00" shape="0.090870,0.759649"/>
    <poly id="29" type="unknown" color="51,128,255" fill="1" layer="-1.00" shape="0.091166,0.758854"/>
    <poly id="3" type="unknown" color="51,128,255" fill="1" layer="-1.00" shape="0.093687,0.762820"/>
    <poly id="30" type="unknown" color="51,128,255" fill="1" layer="-1.00" shape="0.094113,0.758156"/>
    <poly id="31" type="unknown" color="51,128,255" fill="1" layer="-1.00" shape="0.095036,0.758300"/>
    <poly id="32" type="unknown" color="51,128,255" fill="1" layer="-1.00" shape="0.095371,0.757998"/>
    <poly id="33" type="unknown" color="51,128,255" fill="1" layer="-1.00" shape="0.094705,0.757184"/>
    <poly id="34" type="unknown" color="51,128,255" fill="1" layer="-1.00" shape="0.095507,0.759423"/>
    <poly id="35" type="unknown" color="51,128,255" fill="1" layer="-1.00" shape="0.095621,0.759431"/>
    <poly id="36" type="unknown" color="51,128,255" fill="1" layer="-1.00" shape="0.092046,0.757797"/>
    <poly id="37" type="unknown" color="51,128,255" fill="1" layer="-1.00" shape="0.096574,0.757762"/>
    <poly id="38" type="unknown" color="51,128,255" fill="1" layer="-1.00" shape="0.097934,0.758582"/>
    <poly id="39" type="unknown" color="51,128,255" fill="1" layer="-1.00" shape="0.098664,0.758587"/>
    <poly id="4" type="unknown" color="51,128,255" fill="1" layer="-1.00" shape="0.092953,0.763216"/>
    <poly id="40" type="unknown" color="51,128,255" fill="1" layer="-1.00" shape="0.093887,0.757729"/>
    <poly id="41" type="unknown" color="51,128,255" fill="1" layer="-1.00" shape="0.099464,0.758907"/>
    <poly id="42" type="unknown" color="51,128,255" fill="1" layer="-1.00" shape="0.098061,0.759772"/>
    <poly id="43" type="unknown" color="51,128,255" fill="1" layer="-1.00" shape="0.097223,0.759860"/>
    <poly id="44" type="unknown" color="51,128,255" fill="1" layer="-1.00" shape="0.097861,0.761988"/>
    <poly id="45" type="unknown" color="51,128,255" fill="1" layer="-1.00" shape="0.100414,0.763135"/>
    <poly id="46" type="unknown" color="51,128,255" fill="1" layer="-1.00" shape="0.096862,0.762007"/>
    <poly id="47" type="unknown" color="51,128,255" fill="1" layer="-1.00" shape="0.096956,0.760611"/>
    <poly id="48" type="unknown" color="51,128,255" fill="1" layer="-1.00" shape="0.096292,0.760601"/>
    <poly id="49" type="unknown" color="51,128,255" fill="1" layer="-1.00" shape="0.096292,0.760601"/>
    <poly id="5" type="unknown" color="51,128,255" fill="1" layer="-1.00" shape="0.091854,0.763503"/>
    <poly id="50" type="unknown" color="51,128,255" fill="1" layer="-1.00" shape="0.097076,0.759293"/>
    <poly id="51" type="unknown" color="51,128,255" fill="1" layer="-1.00" shape="0.097076,0.759293"/>
    <poly id="52" type="unknown" color="51,128,255" fill="1" layer="-1.00" shape="0.098664,0.758587"/>
    <poly id="53" type="unknown" color="51,128,255" fill="1" layer="-1.00" shape="0.097751,0.759256"/>
    <poly id="54" type="unknown" color="51,128,255" fill="1" layer="-1.00" shape="0.091875,0.757507"/>
    <poly id="55" type="unknown" color="51,128,255" fill="1" layer="-1.00" shape="0.084432,0.756396"/>
    <poly id="56" type="unknown" color="51,128,255" fill="1" layer="-1.00" shape="0.086932,0.758265"/>
    <poly id="57" type="unknown" color="51,128,255" fill="1" layer="-1.00" shape="0.098556,0.756132"/>
    <poly id="58" type="unknown" color="51,128,255" fill="1" layer="-1.00" shape="0.093865,0.756952"/>
    <poly id="59" type="unknown" color="51,128,255" fill="1" layer="-1.00" shape="0.091401,0.756279"/>
    <poly id="6" type="unknown" color="51,128,255" fill="1" layer="-1.00" shape="0.094033,0.762748"/>
    <poly id="60#0" type="unknown" color="51,128,255" fill="1" layer="-1.00" shape="0.091372,0.756248"/>
    <poly id="60#1" type="unknown" color="51,128,255" fill="1" layer="-1.00" shape="0.089689,0.756854"/>
    <poly id="61" type="unknown" color="51,128,255" fill="1" layer="-1.00" shape="0.090209,0.756219"/>
    <poly id="62" type="unknown" color="51,128,255" fill="1" layer="-1.00" shape="0.089171,0.756233"/>
    <poly id="63#0" type="unknown" color="51,128,255" fill="1" layer="-1.00" shape="0.088666,0.756152"/>
    <poly id="63#1" type="unknown" color="51,128,255" fill="1" layer="-1.00" shape="0.089065,0.756541"/>
    <poly id="64" type="unknown" color="51,128,255" fill="1" layer="-1.00" shape="0.088949,0.757482"/>
    <poly id="65" type="unknown" color="51,128,255" fill="1" layer="-1.00" shape="0.091444,0.757875"/>
    <poly id="66" type="unknown" color="51,128,255" fill="1" layer="-1.00" shape="0.091893,0.757492"/>
    <poly id="67" type="unknown" color="51,128,255" fill="1" layer="-1.00" shape="0.095206,0.756349"/>
    <poly id="68" type="unknown" color="51,128,255" fill="1" layer="-1.00" shape="0.095376,0.756777"/>
    <poly id="69" type="unknown" color="51,128,255" fill="1" layer="-1.00" shape="0.097664,0.756187"/>
    <poly id="7" type="unknown" color="51,128,255" fill="1" layer="-1.00" shape="0.095123,0.762352"/>
    <poly id="70" type="unknown" color="51,128,255" fill="1" layer="-1.00" shape="0.096548,0.755216"/>
    <poly id="71" type="unknown" color="51,128,255" fill="1" layer="-1.00" shape="0.097907,0.756883"/>
    <poly id="72" type="unknown" color="51,128,255" fill="1" layer="-1.00" shape="0.097422,0.757559"/>
    <poly id="73" type="unknown" color="51,128,255" fill="1" layer="-1.00" shape="0.096103,0.754511"/>
    <poly id="74#0" type="unknown" color="51,128,255" fill="1" layer="-1.00" shape="0.092509,0.755294"/>
    <poly id="74#1" type="unknown" color="51,128,255" fill="1" layer="-1.00" shape="0.092407,0.755190"/>
    <poly id="74#10" type="unknown" color="51,128,255" fill="1" layer="-1.00" shape="0.092405,0.755195"/>
    <poly id="74#11" type="unknown" color="51,128,255" fill="1" layer="-1.00" shape="0.093601,0.754107"/>
    <poly id="74#12" type="unknown" color="51,128,255" fill="1" layer="-1.00" shape="0.093167,0.754114"/>
    <poly id="74#13" type="unknown" color="51,128,255" fill="1" layer="-1.00" shape="0.093525,0.753969"/>
    <poly id="74#14" type="unknown" color="51,128,255" fill="1" layer="-1.00" shape="0.092540,0.755434"/>
    <poly id="74#15" type="unknown" color="51,128,255" fill="1" layer="-1.00" shape="0.092389,0.755402"/>
    <poly id="74#16" type="unknown" color="51,128,255" fill="1" layer="-1.00" shape="0.092396,0.755190"/>
    <poly id="74#17" type="unknown" color="51,128,255" fill="1" layer="-1.00" shape="0.093577,0.753929"/>
    <poly id="74#18" type="unknown" color="51,128,255" fill="1" layer="-1.00" shape="0.095300,0.754157"/>
    <poly id="74#19" type="unknown" color="51,128,255" fill="1" layer="-1.00" shape="0.095206,0.754187"/>
    <poly id="74#2" type="unknown" color="51,128,255" fill="1" layer="-1.00" shape="0.092406,0.755192"/>
    <poly id="74#20" type="unknown" color="51,128,255" fill="1" layer="-1.00" shape="0.093157,0.754108"/>
    <poly id="74#21" type="unknown" color="51,128,255" fill="1" layer="-1.00" shape="0.093698,0.753596"/>
    <poly id="74#22" type="unknown" color="51,128,255" fill="1" layer="-1.00" shape="0.093355,0.755380"/>
    <poly id="74#23" type="unknown" color="51,128,255" fill="1" layer="-1.00" shape="0.093383,0.755382"/>
    <poly id="74#24" type="unknown" color="51,128,255" fill="1" layer="-1.00" shape="0.092403,0.755196"/>
    <poly id="74#25" type="unknown" color="51,128,255" fill="1" layer="-1.00" shape="0.094140,0.753486"/>
    <poly id="74#26" type="unknown" color="51,128,255" fill="1" layer="-1.00" shape="0.094063,0.753715"/>
    <poly id="74#27" type="unknown" color="51,128,255" fill="1" layer="-1.00" shape="0.092990,0.755384"/>
    <poly id="74#28" type="unknown" color="51,128,255" fill="1" layer="-1.00" shape="0.092375,0.755165"/>
    <poly id="74#29" type="unknown" color="51,128,255" fill="1" layer="-1.00" shape="0.092996,0.755385"/>
    <poly id="74#3" type="unknown" color="51,128,255" fill="1" layer="-1.00" shape="0.092256,0.755098"/>
    <poly id="74#30" type="unknown" color="51,128,255" fill="1" layer="-1.00" shape="0.094191,0.754193"/>
    <poly id="74#31" type="unknown" color="51,128,255" fill="1" layer="-1.00" shape="0.092260,0.755378"/>
    <poly id="74#32" type="unknown" color="51,128,255" fill="1" layer="-1.00" shape="0.093360,0.755457"/>
    <poly id="74#33" type="unknown" color="51,128,255" fill="1" layer="-1.00" shape="0.093889,0.753637"/>
    <poly id="74#34" type="unknown" color="51,128,255" fill="1" layer="-1.00" shape="0.094186,0.753610"/>
    <poly id="74#35" type="unknown" color="51,128,255" fill="1" layer="-1.00" shape="0.093725,0.753575"/>
    <poly id="74#36" type="unknown" color="51,128,255" fill="1" layer="-1.00" shape="0.095661,0.754066"/>
    <poly id="74#37" type="unknown" color="51,128,255" fill="1" layer="-1.00" shape="0.092500,0.755415"/>
    <poly id="74#38" type="unknown" color="51,128,255" fill="1" layer="-1.00" shape="0.092411,0.755215"/>
    <poly id="74#39" type="unknown" color="51,128,255" fill="1" layer="-1.00" shape="0.092375,0.755419"/>
    <poly id="74#4" type="unknown" color="51,128,255" fill="1" layer="-1.00" shape="0.093901,0.753642"/>
    <poly id="74#40" type="unknown" color="51,128,255" fill="1" layer="-1.00" shape="0.092456,0.755424"/>
    <poly id="74#41" type="unknown" color="51,128,255" fill="1" layer="-1.00" shape="0.092460,0.755420"/>
    <poly id="74#42" type="unknown" color="51,128,255" fill="1" layer="-1.00" shape="0.095225,0.754170"/>
    <poly id="74#43" type="unknown" color="51,128,255" fill="1" layer="-1.00" shape="0.093326,0.755443"/>
    <poly id="74#44" type="unknown" color="51,128,255" fill="1" layer="-1.00" shape="0.094294,0.753567"/>
    <poly id="74#45" type="unknown" color="51,128,255" fill="1" layer="-1.00" shape="0.093317,0.755442"/>
    <poly id="74#46" type="unknown" color="51,128,255" fill="1" layer="-1.00" shape="0.093476,0.754004"/>
    <poly id="74#47" type="unknown" color="51,128,255" fill="1" layer="-1.00" shape="0.093321,0.755446"/>
    <poly id="74#48" type="unknown" color="51,128,255" fill="1" layer="-1.00" shape="0.092261,0.755376"/>
    <poly id="74#49" type="unknown" color="51,128,255" fill="1" layer="-1.00" shape="0.094154,0.753452"/>
    <poly id="74#5" type="unknown" color="51,128,255" fill="1" layer="-1.00" shape="0.093909,0.753648"/>
    <poly id="74#50" type="unknown" color="51,128,255" fill="1" layer="-1.00" shape="0.093289,0.755358"/>
    <poly id="74#51" type="unknown" color="51,128,255" fill="1" layer="-1.00" shape="0.093942,0.753816"/>
    <poly id="74#52" type="unknown" color="51,128,255" fill="1" layer="-1.00" shape="0.093283,0.755342"/>
    <poly id="74#53" type="unknown" color="51,128,255" fill="1" layer="-1.00" shape="0.092983,0.755375"/>
    <poly id="74#54" type="unknown" color="51,128,255" fill="1" layer="-1.00" shape="0.093084,0.754208"/>
    <poly id="74#55" type="unknown" color="51,128,255" fill="1" layer="-1.00" shape="0.093599,0.753982"/>
    <poly id="74#56" type="unknown" color="51,128,255" fill="1" layer="-1.00" shape="0.092961,0.754235"/>
    <poly id="74#57" type="unknown" color="51,128,255" fill="1" layer="-1.00" shape="0.093888,0.753635"/>
    <poly id="74#58" type="unknown" color="51,128,255" fill="1" layer="-1.00" shape="0.091258,0.753943"/>
    <poly id="74#59" type="unknown" color="51,128,255" fill="1" layer="-1.00" shape="0.092575,0.755316"/>
    <poly id="74#6" type="unknown" color="51,128,255" fill="1" layer="-1.00" shape="0.093378,0.755538"/>
    <poly id="74#60" type="unknown" color="51,128,255" fill="1" layer="-1.00" shape="0.095376,0.756777"/>
    <poly id="74#7" type="unknown" color="51,128,255" fill="1" layer="-1.00" shape="0.093902,0.753647"/>
    <poly id="74#8" type="unknown" color="51,128,255" fill="1" layer="-1.00" shape="0.094126,0.753506"/>
    <poly id="74#9" type="unknown" color="51,128,255" fill="1" layer="-1.00" shape="0.093942,0.753817"/>
    <poly id="75" type="unknown" color="51,128,255" fill="1" layer="-1.00" shape="0.096574,0.757762"/>
    <poly id="76" type="unknown" color="51,128,255" fill="1" layer="-1.00" shape="0.097036,0.757598"/>
    <poly id="77" type="unknown" color="51,128,255" fill="1" layer="-1.00" shape="0.097422,0.757559"/>
    <poly id="78" type="unknown" color="51,128,255" fill="1" layer="-1.00" shape="0.096962,0.757563"/>
    <poly id="79" type="unknown" color="51,128,255" fill="1" layer="-1.00" shape="0.097136,0.756718"/>
    <poly id="8" type="unknown" color="51,128,255" fill="1" layer="-1.00" shape="0.092125,0.760528"/>
    <poly id="80" type="unknown" color="51,128,255" fill="1" layer="-1.00" shape="0.097907,0.756883"/>
    <poly id="81" type="unknown" color="51,128,255" fill="1" layer="-1.00" shape="0.096953,0.754833"/>
    <poly id="82" type="unknown" color="51,128,255" fill="1" layer="-1.00" shape="0.097643,0.754618"/>
    <poly id="83" type="unknown" color="51,128,255" fill="1" layer="-1.00" shape="0.097982,0.755202"/>
    <poly id="84" type="unknown" color="51,128,255" fill="1" layer="-1.00" shape="0.100548,0.755158"/>
    <poly id="85" type="unknown" color="51,128,255" fill="1" layer="-1.00" shape="0.097607,0.754311"/>
    <poly id="86" type="unknown" color="51,128,255" fill="1" layer="-1.00" shape="0.087368,0.758693"/>
    <poly id="87" type="unknown" color="51,128,255" fill="1" layer="-1.00" shape="0.086932,0.758265"/>
    <poly id="88" type="unknown" color="51,128,255" fill="1" layer="-1.00" shape="0.088214,0.758224"/>
    <poly id="89" type="unknown" color="51,128,255" fill="1" layer="-1.00" shape="0.089394,0.759619"/>
    <poly id="9" type="unknown" color="51,128,255" fill="1" layer="-1.00" shape="0.095363,0.761206"/>
    <poly id="90" type="unknown" color="51,128,255" fill="1" layer="-1.00" shape="0.100356,0.757500"/>
    <poly id="91" type="unknown" color="51,128,255" fill="1" layer="-1.00" shape="0.098075,0.762174"/>
</additional>
