<polygons>
  <poly id="marseille_0" type="Marseille" color="1,0.2,0.2" fill="1" lineWidth="1" layer="0" shape="696524.39,4806256.25 696527.00,4806259.06 696531.97,4806264.17 696544.48,4806289.72 696554.58,4806293.28 696563.46,4806304.56 696569.58,4806307.78 696594.08,4806309.45 696602.55,4806314.66 696609.80,4806326.31 696631.87,4806332.44 696640.38,4806341.16 696640.08,4806347.37 696632.98,4806352.94 696626.94,4806358.61 696627.10,4806364.70 696638.88,4806371.27 696646.62,4806372.85 696654.46,4806371.85 696657.69,4806365.96 696663.88,4806363.10 696669.46,4806358.60 696667.83,4806346.31 696669.45,4806343.61 696673.89,4806342.87 696684.01,4806347.59 696689.98,4806347.54 696694.22,4806350.31 696693.81,4806356.64 696684.99,4806366.20 696682.46,4806372.90 696685.52,4806388.22 696688.61,4806392.88 696693.93,4806400.24 696697.40,4806405.08 696703.12,4806406.18 696710.54,4806403.54 696718.52,4806400.61 696724.53,4806400.57 696731.15,4806405.94 696735.76,4806443.64 696759.82,4806448.31 696917.57,4806537.63 696986.78,4806571.65 696997.16,4806581.86 697142.41,4806646.98 697182.53,4806656.09 697193.50,4806668.86 697256.01,4806688.93 697376.05,4806849.21 697387.66,4806870.27 697403.47,4806914.18 697410.02,4806944.44 697414.72,4806958.98 697444.81,4807033.94 697476.39,4807083.44 697507.00,4807117.49 697522.78,4807123.37 697555.99,4807127.66 697633.24,4807131.88 697663.42,4807116.75 697696.61,4807050.70 697739.25,4807020.59 698073.31,4806855.06 698138.93,4806767.86 698214.41,4806698.01 698241.51,4806709.01 698285.51,4806627.09 698377.31,4806554.05 698450.21,4806410.06 698469.50,4806314.29 698491.50,4806274.24 698521.94,4806177.22 698564.74,4806103.72 699049.28,4805269.51 699111.58,4805147.95 699186.10,4805040.98 699243.89,4804924.88 699246.62,4804916.11 699283.02,4804799.00 699301.59,4804768.24 699296.09,4804758.23 699247.22,4804758.96 699246.16,4804752.43 699293.22,4804706.09 699334.06,4804626.62 699400.58,4804559.10 699415.19,4804532.15 699437.60,4804401.58 699438.41,4804396.93 699423.97,4804353.68 699431.40,4804314.58 699429.67,4804290.75 699447.60,4804272.96 699492.89,4804286.29 699533.81,4804256.15 699534.95,4804231.27 699512.48,4804199.77 699511.02,4804189.67 699523.22,4804159.19 699529.66,4804104.53 699545.02,4804085.78 699577.87,4804077.82 699596.43,4804047.44 699611.48,4804032.38 699627.59,4804002.00 699633.65,4803891.06 699627.81,4803857.35 699621.15,4803846.21 699633.65,4803840.31 699636.45,4803839.01 699681.96,4803792.11 699701.73,4803771.66 699717.49,4803754.93 699720.56,4803753.19 699700.89,4803723.51 699634.66,4803623.55 699605.90,4803569.01 699503.07,4803357.58 699501.63,4803344.36 699500.10,4803330.32 699494.91,4803321.26 699484.98,4803310.42 699453.39,4803284.23 699405.02,4803244.14 699389.49,4803233.89 699361.60,4803199.55 699336.47,4803176.32 699331.58,4803171.78 699301.97,4803131.76 699284.20,4803092.35 699245.93,4803034.11 699208.72,4803058.60 699194.69,4803037.76 699203.13,4803030.99 699192.01,4803014.77 699222.40,4802985.69 699220.16,4802979.64 699193.68,4802938.31 699155.48,4802904.18 699096.26,4802824.34 699094.52,4802820.69 699069.10,4802767.16 699037.77,4802661.10 698990.49,4802571.31 698926.49,4802490.69 698903.36,4802461.55 698869.56,4802390.07 698829.15,4802338.25 698813.44,4802311.19 698799.54,4802290.14 698797.11,4802282.78 698779.04,4802215.37 698732.04,4802091.59 698719.92,4801969.95 698717.59,4801940.98 698684.35,4801802.40 698676.44,4801767.20 698674.29,4801680.73 698656.39,4801606.90 698665.83,4801606.43 698639.29,4801500.42 698621.01,4801393.38 698620.45,4801385.97 698621.13,4801384.69 698623.95,4801377.83 698630.11,4801376.21 698719.85,4801279.42 698724.20,4801276.02 698788.47,4801251.38 698792.53,4801249.69 698792.31,4801247.87 698783.39,4801172.35 698782.66,4801152.78 698842.32,4801129.14 698834.92,4801123.00 698856.70,4801113.22 698860.65,4801111.57 698889.78,4801082.97 698892.80,4801081.01 698952.11,4801042.49 698955.30,4801047.92 698981.56,4801039.99 698984.17,4801044.00 699006.31,4801027.78 699010.30,4801021.20 699004.87,4801010.89 699011.51,4800998.45 699071.64,4800885.65 699127.12,4800810.00 699179.31,4800737.58 699183.38,4800729.72 699188.39,4800722.05 699291.96,4800558.15 699348.97,4800517.37 699395.57,4800460.03 699514.55,4800309.38 699993.37,4799640.06 700220.92,4799382.74 700213.55,4799369.12 700308.18,4799322.32 700346.43,4799308.04 700335.19,4799285.72 700359.11,4799253.89 700367.79,4799187.20 700422.94,4799033.20 700442.32,4799001.02 700475.36,4798974.65 700580.48,4798914.50 700605.09,4798896.42 700664.23,4798850.81 700689.23,4798812.11 700707.31,4798760.80 700721.59,4798740.54 700794.73,4798727.23 700900.41,4798727.55 700984.31,4798716.55 701066.75,4798723.84 701070.54,4798715.42 701081.96,4798690.00 701178.31,4798642.33 701206.46,4798638.29 701251.76,4798645.00 701304.09,4798660.84 701377.72,4798756.41 701413.84,4798779.12 701488.62,4798804.21 701616.89,4798819.91 701661.78,4798842.13 701713.96,4798854.93 701764.84,4798851.54 701811.23,4798838.54 701836.72,4798837.13 701874.99,4798835.02 701893.03,4798829.89 702044.30,4798832.60 702089.88,4798829.31 702120.58,4798836.71 702144.91,4798823.61 702252.15,4798876.36 702317.51,4798835.80 702347.85,4798823.19 702379.77,4798827.92 702418.22,4798854.88 702510.69,4798871.00 702523.31,4798877.57 702556.43,4798822.96 702595.79,4798850.91 702608.25,4798841.73 702729.77,4798849.13 702747.41,4798860.51 702764.16,4798886.59 702812.41,4798985.88 702828.58,4798991.93 702848.79,4799071.40 702849.50,4799099.71 702871.11,4799124.25 702988.49,4799122.66 703073.24,4799146.31 703176.17,4799157.72 703184.97,4799160.63 703194.45,4799172.25 703220.69,4799166.17 703283.09,4799173.55 703391.46,4799228.54 703416.76,4799230.08 703414.90,4799235.64 703414.82,4799255.39 703447.32,4799279.40 703466.49,4799285.94 703474.21,4799294.26 703509.70,4799311.72 703511.39,4799313.18 703516.66,4799317.74 703518.17,4799319.05 703523.60,4799323.75 703540.40,4799338.30 703620.93,4799391.85 703642.12,4799397.76 703713.04,4799436.50 703727.86,4799485.18 703727.94,4799518.92 703726.78,4799546.13 703810.86,4799629.07 703863.78,4799634.46 703930.63,4799589.32 703997.67,4799550.72 704080.44,4799557.93 704109.38,4799572.78 704120.64,4799560.98 704130.75,4799569.69 704166.68,4799580.95 704277.06,4799542.68 704384.41,4799531.55 704465.94,4799564.55 704487.89,4799565.83 704508.39,4799560.52 704559.95,4799526.84 704553.12,4799464.15 704543.80,4799378.55 704507.69,4799324.26 704488.33,4799270.31 704480.87,4799254.90 704476.25,4799245.33 704448.72,4799188.39 704459.71,4799155.67 704450.19,4799066.23 704441.02,4799034.23 704442.94,4799031.27 704497.77,4798912.66 704574.50,4798818.99 704602.29,4798794.38 704709.22,4798756.71 704719.21,4798783.73 704794.86,4798768.65 704860.19,4798787.74 704869.92,4798772.97 704888.37,4798765.71 704984.60,4798752.89 705010.20,4798790.89 705055.67,4798797.94 705126.19,4798822.25 705176.72,4798813.24 705197.27,4798799.91 705224.97,4798766.72 705226.81,4798763.87 705258.83,4798687.99 705261.86,4798656.92 705233.07,4798592.83 705163.03,4798555.89 705039.33,4798456.77 704943.36,4798252.02 704943.01,4798223.42 705068.71,4798031.06 705072.34,4797932.00 705073.46,4797930.05 705077.17,4797773.08 705082.38,4797745.81 705068.95,4797691.56 705068.97,4797675.59 705069.01,4797654.56 705069.00,4797653.78 705069.01,4797651.85 705080.20,4797635.37 705117.79,4797580.01 705139.09,4797573.11 705155.75,4797573.70 705182.79,4797505.28 705217.20,4797437.28 705224.87,4797408.76 705219.30,4797372.91 705224.78,4797359.59 705254.00,4797330.20 705280.65,4797313.46 705318.18,4797275.38 705331.16,4797266.04 705343.44,4797265.88 705351.81,4797248.64 705416.35,4797191.02 705416.94,4797177.74 705412.32,4797132.02 705387.03,4797050.92 705333.36,4797027.47 705315.33,4796994.00 705297.95,4796973.10 705265.61,4796950.77 705237.70,4796939.24 705229.39,4796911.72 705204.60,4796869.71 705176.52,4796856.63 705170.85,4796849.23 705173.17,4796838.55 705157.38,4796819.68 705153.54,4796803.77 705126.22,4796790.13 705095.30,4796784.03 705089.18,4796773.75 705085.97,4796736.10 705078.23,4796720.90 705074.67,4796687.61 705065.84,4796670.30 705064.71,4796656.37 705076.11,4796614.38 705074.65,4796567.60 705079.76,4796548.73 705037.41,4796555.57 704988.79,4796588.82 704964.06,4796594.65 704935.58,4796590.80 704864.55,4796592.92 704797.10,4796581.60 704655.04,4796471.82 704591.40,4796383.21 704546.94,4796321.31 704509.83,4796251.52 704525.51,4796139.94 704525.37,4796095.44 704498.68,4796061.88 704438.81,4796013.35 704322.05,4796010.81 704321.26,4795942.79 704319.22,4795874.78 704308.44,4795880.33 704305.75,4795881.04 704302.90,4795881.11 704281.00,4795879.14 704278.35,4795879.48 704276.29,4795880.51 704272.63,4795883.95 704267.51,4795888.92 704265.02,4795890.37 704262.62,4795891.15 704230.91,4795886.65 704214.64,4795879.29 704207.80,4795877.49 704188.44,4795877.81 704180.41,4795878.15 704171.63,4795879.06 704162.19,4795883.49 704159.98,4795883.54 704145.60,4795875.92 704134.56,4795876.03 704091.12,4795878.51 704084.67,4795879.51 704055.22,4795884.17 704046.46,4795886.73 704036.53,4795892.69 704032.14,4795894.80 704008.59,4795905.24 704006.42,4795907.65 704006.67,4795931.12 703988.67,4795937.07 703987.28,4795938.95 703986.21,4795941.64 703986.09,4795943.77 703974.00,4795945.50 703969.24,4795945.53 703962.41,4795946.86 703955.66,4795946.53 703949.54,4795948.15 703926.85,4795952.30 703866.95,4795962.96 703847.40,4795830.39 703837.88,4795802.33 703829.28,4795772.02 703828.58,4795769.54 703814.79,4795771.63 703814.50,4795765.94 703816.24,4795757.67 703817.85,4795749.50 703822.06,4795743.76 703822.08,4795741.61 703820.89,4795741.28 703816.47,4795741.10 703810.35,4795740.98 703798.70,4795741.05 703790.04,4795707.69 703785.20,4795689.07 703782.06,4795641.24 703778.49,4795623.60 703760.81,4795439.06 703753.68,4795379.10 703744.81,4795241.54 703750.71,4795208.07 703726.84,4795219.99 703530.01,4795235.13 703515.17,4795239.73 703467.24,4795278.68 703458.00,4795270.90 703454.08,4795267.59 703437.85,4795286.61 703395.72,4795306.88 703395.18,4795307.14 703327.58,4795312.19 703258.04,4795309.78 703257.79,4795308.12 703257.36,4795305.44 703249.82,4795258.47 703258.97,4795257.32 703258.68,4795244.08 703260.65,4795243.82 703258.44,4795230.97 703250.60,4795201.28 703223.03,4795149.79 703220.52,4795143.86 703220.22,4795120.95 703217.54,4795105.55 703222.00,4795105.63 703226.13,4795105.71 703241.93,4795102.64 703244.75,4795102.09 703327.42,4795091.17 703294.37,4794984.93 703293.10,4794904.00 703274.47,4794763.53 703284.75,4794669.82 703285.31,4794652.88 703279.20,4794652.89 703283.31,4794594.55 703322.50,4794482.37 703341.10,4794343.75 703387.72,4794317.46 703400.11,4794310.91 703428.44,4794270.02 703452.90,4794192.56 703504.84,4794177.65 703545.11,4794135.63 703558.24,4794076.48 703619.52,4794023.89 703628.08,4793979.93 703628.43,4793978.13 703659.07,4793906.35 703675.31,4793868.31 703745.08,4793705.80 703791.36,4793672.38 703913.94,4793648.89 704061.39,4793612.46 704068.13,4793609.58 704093.78,4793588.94 703975.48,4793130.29 704065.17,4792905.53 704122.62,4792765.52 704124.00,4792762.26 704130.00,4792737.66 704207.44,4792421.04 704219.01,4792373.73 704560.10,4791032.56 704557.98,4791025.63 704533.45,4790726.92 704583.47,4790693.44 704817.11,4790542.46 704825.19,4790537.19 705081.67,4790370.28 705106.97,4790293.23 705044.97,4790151.03 704970.22,4790033.54 704876.42,4789992.32 704734.49,4789985.17 704333.36,4789996.39 703854.31,4789974.59 703794.92,4789978.54 703753.80,4789968.46 703726.34,4789934.36 703700.51,4789913.28 703673.60,4789867.34 703664.68,4789825.70 703648.42,4789798.15 703638.68,4789789.54 703598.35,4789773.30 703561.08,4789744.76 703557.35,4789740.01 703557.75,4789736.74 703566.07,4789732.01 703569.33,4789685.49 703585.06,4789648.46 703584.87,4789632.64 703570.25,4789618.89 703556.75,4789600.17 703556.54,4789581.10 703559.00,4789575.23 703573.36,4789548.86 703575.18,4789533.98 703579.31,4789499.05 703577.55,4789492.28 703529.00,4789441.92 703525.56,4789438.44 703525.56,4789435.83 703526.49,4789427.54 703568.53,4789055.45 703878.90,4788759.50 703975.74,4788577.26 704020.87,4788449.74 703988.28,4788333.44 704361.51,4788045.03 704425.02,4787996.99 704427.99,4787991.82 704520.63,4787831.25 704487.08,4787651.47 704482.51,4787611.69 704371.43,4787344.37 704239.32,4786984.23 704057.52,4786847.50 704017.08,4786732.37 704017.05,4786680.98 704045.73,4786572.70 703996.63,4786258.81 703920.34,4785835.83 703906.17,4785855.30 703909.52,4785864.42 703904.51,4785878.59 703894.50,4785885.23 703895.22,4785893.46 703891.73,4785907.38 703885.06,4785941.57 703878.80,4785944.99 703868.52,4785963.91 703869.22,4785974.40 703872.91,4785977.96 703866.23,4786005.26 703858.07,4786019.00 703859.50,4786025.90 703857.27,4786024.12 703855.80,4786019.31 703853.53,4786017.31 703850.10,4786018.83 703854.79,4786031.82 703857.68,4786034.39 703862.08,4786032.88 703865.42,4786033.99 703864.68,4786038.94 703858.98,4786042.49 703856.48,4786045.83 703856.34,4786056.41 703860.03,4786061.90 703860.24,4786067.25 703856.49,4786073.37 703859.76,4786075.25 703857.54,4786084.09 703853.57,4786088.82 703855.59,4786095.21 703856.60,4786098.19 703856.39,4786112.97 703860.19,4786115.68 703862.05,4786134.16 703864.12,4786139.91 703863.69,4786149.05 703865.65,4786157.20 703868.14,4786159.07 703868.58,4786162.11 703871.89,4786168.38 703871.46,4786177.50 703876.33,4786185.58 703871.88,4786217.21 703878.07,4786217.48 703881.68,4786225.42 703886.34,4786231.77 703889.83,4786235.72 703888.38,4786248.78 703891.92,4786257.16 703886.88,4786263.95 703884.10,4786269.02 703888.27,4786273.96 703901.07,4786277.29 703906.22,4786281.67 703912.07,4786294.18 703915.78,4786319.44 703926.86,4786332.93 703924.19,4786334.35 703938.89,4786343.84 703943.70,4786342.31 703943.29,4786358.43 703952.41,4786357.73 703951.03,4786367.47 703960.07,4786367.46 703968.94,4786365.90 703975.37,4786370.07 703986.60,4786384.85 703995.56,4786395.55 703999.37,4786403.57 704000.05,4786399.63 704002.50,4786400.04 704001.01,4786407.64 704004.00,4786416.20 704000.80,4786439.89 703997.57,4786449.88 703999.38,4786463.34 704005.21,4786472.85 704002.84,4786503.17 703996.10,4786506.76 703989.48,4786512.96 703986.76,4786512.21 703983.79,4786515.91 703981.85,4786521.26 703973.01,4786517.16 703967.59,4786514.74 703964.55,4786511.54 703962.49,4786508.89 703972.04,4786493.47 703972.49,4786488.04 703974.54,4786479.34 703971.92,4786474.74 703967.62,4786473.76 703968.04,4786467.94 703960.02,4786453.87 703963.29,4786445.04 703959.79,4786429.94 703951.64,4786422.60 703939.38,4786422.16 703922.94,4786421.57 703906.68,4786420.99 703900.50,4786411.88 703893.33,4786413.30 703887.67,4786400.81 703869.63,4786400.49 703875.28,4786392.55 703862.66,4786368.00 703864.18,4786364.84 703859.72,4786363.86 703852.98,4786356.05 703844.26,4786343.96 703837.46,4786339.37 703832.03,4786331.56 703818.27,4786326.98 703813.34,4786316.46 703801.11,4786315.96 703808.58,4786296.93 703793.45,4786267.40 703790.95,4786251.05 703774.54,4786250.44 703775.99,4786233.61 703729.00,4786196.08 703738.70,4786170.50 703732.40,4786163.15 703726.29,4786165.66 703712.89,4786155.14 703714.64,4786134.78 703710.24,4786131.33 703712.25,4786122.66 703704.13,4786116.88 703706.38,4786096.93 703688.04,4786085.75 703683.34,4786084.78 703686.86,4786068.30 703687.62,4786061.00 703688.48,4786053.39 703686.12,4786036.95 703679.92,4786028.71 703681.98,4786022.07 703687.78,4786016.73 703685.08,4786008.44 703678.16,4785998.72 703679.06,4785991.42 703679.06,4785981.36 703678.38,4785980.43 703670.09,4785973.92 703665.91,4785974.33 703664.59,4785986.84 703663.57,4786003.13 703659.46,4786008.20 703658.46,4786016.47 703655.93,4786023.00 703654.20,4786031.38 703652.07,4786037.81 703649.08,4786039.86 703639.50,4786041.25 703637.08,4786036.14 703630.73,4786030.44 703627.29,4786025.34 703620.74,4786022.76 703615.14,4786007.98 703609.70,4785999.56 703603.73,4785996.60 703589.73,4786010.40 703581.01,4786023.21 703550.73,4786052.10 703544.46,4786051.52 703519.13,4786072.02 703506.70,4786075.32 703506.24,4786085.84 703498.02,4786079.22 703489.41,4786082.98 703484.05,4786079.03 703471.88,4786082.73 703462.62,4786081.06 703458.89,4786086.34 703449.39,4786086.26 703448.37,4786083.87 703434.75,4786082.47 703433.03,4786078.67 703420.06,4786080.94 703407.43,4786084.45 703408.28,4786087.72 703389.97,4786102.46 703376.23,4786110.79 703378.68,4786117.03 703375.32,4786127.30 703369.60,4786131.58 703363.00,4786140.88 703354.59,4786135.31 703348.07,4786134.36 703348.59,4786138.74 703338.94,4786144.63 703340.58,4786149.05 703336.64,4786152.08 703334.33,4786159.53 703329.13,4786166.02 703322.31,4786171.83 703318.60,4786172.71 703315.71,4786170.58 703303.97,4786170.32 703290.20,4786180.16 703283.22,4786178.92 703268.98,4786186.64 703266.55,4786192.12 703261.36,4786200.14 703253.18,4786204.86 703231.10,4786212.14 703225.83,4786205.87 703218.47,4786205.35 703206.41,4786206.16 703190.72,4786211.87 703179.53,4786226.41 703175.07,4786226.34 703167.65,4786236.72 703150.60,4786235.39 703144.66,4786238.74 703144.39,4786242.88 703140.35,4786246.01 703133.46,4786245.74 703129.62,4786251.04 703125.61,4786247.62 703122.64,4786249.60 703121.79,4786255.75 703118.85,4786256.31 703117.41,4786252.84 703110.66,4786250.47 703108.85,4786249.92 703103.77,4786252.36 703094.84,4786253.77 703088.22,4786257.35 703075.50,4786258.07 703072.65,4786262.55 703059.61,4786272.07 703045.62,4786280.35 703024.84,4786292.59 703021.64,4786297.84 703015.64,4786296.80 703010.49,4786299.63 703008.31,4786306.91 703000.39,4786313.17 702996.42,4786319.13 702989.44,4786321.73 702984.02,4786324.84 702980.19,4786329.21 702976.71,4786331.02 702941.58,4786294.52 702941.09,4786292.71 702963.90,4786275.67 702987.21,4786249.44 702992.47,4786243.53 703007.21,4786241.07 703007.42,4786230.48 703015.60,4786223.90 703021.48,4786220.92 703021.77,4786217.41 703029.05,4786215.45 703041.77,4786201.08 703046.99,4786199.48 703062.88,4786183.60 703087.01,4786179.96 703090.02,4786175.58 703095.79,4786179.88 703103.51,4786180.74 703106.66,4786185.74 703112.96,4786188.24 703116.65,4786192.37 703121.95,4786188.62 703128.31,4786169.75 703132.47,4786152.98 703137.71,4786154.86 703161.30,4786139.53 703173.77,4786134.26 703192.12,4786125.75 703217.65,4786115.14 703237.15,4786105.10 703242.35,4786104.57 703254.99,4786100.82 703270.30,4786091.76 703270.83,4786088.85 703273.50,4786086.92 703276.84,4786082.47 703282.48,4786069.89 703285.94,4786065.18 703290.09,4786058.34 703296.66,4786049.91 703309.04,4786037.44 703316.26,4786025.59 703325.09,4786019.05 703328.59,4786006.19 703341.39,4785999.94 703351.41,4785996.50 703360.08,4785990.90 703372.21,4785980.16 703399.26,4785972.70 703430.90,4785959.97 703483.00,4785930.16 703479.60,4785911.67 703481.89,4785895.31 703479.99,4785875.70 703483.15,4785858.57 703488.19,4785854.83 703488.63,4785848.57 703485.67,4785843.00 703484.71,4785842.39 703478.36,4785843.79 703477.06,4785841.44 703472.97,4785846.74 703466.00,4785848.77 703457.44,4785845.09 703443.88,4785846.35 703424.75,4785852.62 703418.86,4785852.39 703414.44,4785855.17 703381.57,4785861.45 703346.40,4785861.26 703342.18,4785858.01 703314.47,4785853.54 703303.74,4785852.05 703291.79,4785852.87 703286.35,4785855.45 703239.44,4785821.20 703228.30,4785823.78 703205.48,4785815.68 703200.77,4785800.77 703181.42,4785771.57 703163.28,4785754.53 703159.80,4785746.54 703154.23,4785744.19 703149.36,4785742.89 703144.06,4785745.50 703134.41,4785751.33 703131.38,4785757.15 703095.09,4785766.66 703093.19,4785772.49 703090.62,4785778.88 703084.24,4785791.24 703061.82,4785792.62 703039.41,4785795.07 703017.95,4785806.89 702997.90,4785820.94 702948.34,4785871.58 702921.70,4785891.45 702894.93,4785912.70 702881.08,4785929.55 702874.30,4785959.17 702867.24,4785957.40 702866.57,4785968.81 702852.44,4785965.55 702852.17,4785976.29 702857.88,4785990.83 702851.37,4785995.90 702830.94,4785988.52 702827.46,4785990.52 702824.86,4785988.43 702819.98,4785988.53 702821.12,4786000.34 702818.35,4786018.51 702821.48,4786029.30 702807.05,4786028.60 702803.31,4786032.78 702798.53,4786038.70 702797.40,4786043.73 702793.41,4786047.05 702794.11,4786052.52 702790.98,4786052.70 702776.77,4786046.07 702771.99,4786047.29 702769.99,4786048.43 702756.52,4786055.91 702753.74,4786063.29 702749.22,4786065.29 702746.44,4786070.60 702742.09,4786070.43 702735.14,4786066.35 702727.49,4786065.22 702726.48,4786063.19 702712.37,4786070.71 702710.07,4786078.09 702704.86,4786079.75 702699.99,4786084.49 702698.44,4786093.16 702694.94,4786100.58 702683.35,4786113.17 702676.86,4786118.93 702667.90,4786117.02 702664.28,4786117.61 702656.01,4786117.24 702657.46,4786125.06 702655.51,4786128.84 702655.23,4786141.35 702654.71,4786165.73 702651.41,4786168.06 702658.32,4786186.01 702663.40,4786191.75 702673.13,4786199.34 702674.36,4786204.25 702670.04,4786209.53 702666.10,4786211.12 702667.68,4786216.23 702670.04,4786218.19 702669.25,4786220.73 702675.88,4786225.93 702676.31,4786231.78 702668.67,4786235.93 702662.47,4786237.30 702670.47,4786246.83 702669.66,4786265.14 702679.49,4786276.90 702675.87,4786279.62 702670.19,4786276.45 702664.78,4786278.32 702665.41,4786282.07 702668.95,4786286.19 702680.38,4786295.84 702682.29,4786305.90 702692.02,4786310.24 702696.70,4786316.00 702695.84,4786321.12 702683.72,4786314.16 702680.42,4786314.59 702680.45,4786318.55 702675.50,4786317.46 702675.79,4786322.76 702686.99,4786331.96 702679.84,4786338.83 702672.59,4786339.06 702673.74,4786345.96 702683.99,4786354.91 702684.47,4786359.94 702673.25,4786363.81 702659.18,4786376.11 702656.69,4786382.58 702654.20,4786392.43 702647.14,4786398.31 702616.82,4786398.54 702611.17,4786401.36 702609.32,4786399.30 702597.70,4786396.37 702592.26,4786393.22 702584.54,4786392.58 702570.42,4786387.54 702569.94,4786388.45 702565.20,4786389.08 702566.11,4786395.96 702563.75,4786414.26 702558.33,4786430.78 702547.70,4786434.62 702540.32,4786438.36 702539.38,4786438.16 702538.71,4786438.54 702537.27,4786438.25 702536.46,4786439.19 702533.99,4786440.28 702534.00,4786441.07 702533.13,4786442.15 702533.03,4786440.55 702532.69,4786440.02 702528.96,4786442.73 702528.17,4786447.44 702528.14,4786449.94 702527.60,4786453.76 702526.43,4786456.46 702526.44,4786457.62 702525.67,4786459.05 702526.13,4786461.15 702527.20,4786461.86 702527.53,4786463.59 702524.52,4786467.32 702520.43,4786469.32 702511.02,4786470.51 702506.53,4786469.17 702499.32,4786466.08 702493.42,4786464.34 702488.19,4786460.48 702482.89,4786458.16 702481.86,4786457.97 702481.47,4786458.55 702480.18,4786457.76 702478.24,4786457.25 702475.25,4786457.06 702473.96,4786457.27 702473.86,4786457.63 702473.95,4786457.95 702473.80,4786458.09 702473.37,4786457.84 702472.98,4786457.95 702470.30,4786456.56 702467.96,4786454.61 702466.94,4786454.37 702466.57,4786453.88 702462.93,4786451.82 702460.31,4786450.89 702457.13,4786449.74 702456.34,4786449.68 702455.06,4786449.25 702451.98,4786449.31 702451.20,4786449.64 702451.21,4786449.98 702450.80,4786450.22 702450.00,4786449.96 702449.66,4786450.61 702450.38,4786451.34 702449.08,4786451.10 702447.40,4786451.53 702442.88,4786453.26 702440.84,4786455.06 702440.26,4786457.02 702438.92,4786457.30 702438.60,4786458.68 702435.21,4786461.48 702433.23,4786465.74 702432.22,4786466.04 702432.00,4786466.99 702430.83,4786469.15 702428.78,4786469.60 702426.74,4786470.12 702426.15,4786469.98 702423.96,4786471.09 702422.53,4786470.42 702421.70,4786470.35 702421.10,4786471.09 702419.52,4786469.94 702419.05,4786470.26 702418.60,4786470.46 702418.65,4786471.22 702420.20,4786472.82 702420.94,4786473.09 702421.10,4786473.60 702421.77,4786474.21 702425.62,4786476.09 702426.13,4786476.93 702427.32,4786477.38 702429.06,4786479.26 702430.04,4786479.53 702430.60,4786480.25 702431.04,4786480.35 702431.89,4786482.22 702433.31,4786484.47 702434.18,4786484.66 702434.41,4786485.68 702435.28,4786486.94 702435.72,4786490.37 702434.97,4786491.91 702433.19,4786492.89 702429.74,4786492.34 702429.33,4786491.55 702430.54,4786490.25 702430.71,4786489.19 702428.54,4786487.07 702427.68,4786486.77 702427.07,4786485.22 702425.94,4786484.68 702425.74,4786483.81 702424.63,4786482.91 702421.79,4786481.24 702420.36,4786480.96 702419.42,4786480.27 702419.37,4786479.16 702418.59,4786478.87 702418.59,4786479.49 702418.03,4786479.31 702417.32,4786478.20 702416.24,4786477.09 702413.76,4786476.19 702412.97,4786475.22 702408.64,4786472.37 702407.87,4786472.57 702407.26,4786472.06 702405.88,4786468.95 702406.09,4786463.64 702406.94,4786461.84 702407.00,4786460.54 702408.89,4786458.55 702409.72,4786459.02 702411.87,4786458.29 702411.65,4786456.60 702412.05,4786456.78 702412.66,4786457.34 702413.18,4786457.21 702413.10,4786456.26 702411.60,4786455.26 702410.84,4786454.13 702412.29,4786453.38 702416.34,4786456.25 702416.69,4786457.46 702417.47,4786457.81 702419.15,4786457.34 702419.27,4786456.66 702419.69,4786456.57 702420.56,4786457.54 702421.95,4786456.72 702421.90,4786455.99 702421.10,4786443.56 702423.10,4786438.39 702429.73,4786428.72 702431.47,4786416.42 702414.63,4786392.85 702410.53,4786382.63 702409.86,4786382.47 702406.18,4786376.29 702400.50,4786368.23 702399.31,4786360.27 702401.81,4786355.70 702405.72,4786355.16 702407.24,4786352.11 702407.78,4786346.68 702408.42,4786339.69 702408.16,4786338.52 702406.35,4786336.98 702406.59,4786336.36 702404.41,4786333.38 702404.11,4786331.60 702404.70,4786329.15 702405.69,4786327.92 702406.25,4786325.64 702402.70,4786322.92 702400.95,4786321.23 702397.57,4786318.53 702395.71,4786318.01 702391.88,4786315.48 702390.73,4786314.93 702385.38,4786311.40 702384.54,4786310.34 702382.36,4786309.49 702381.13,4786306.74 702379.80,4786305.45 702377.12,4786304.15 702374.95,4786304.65 702373.93,4786305.66 702372.55,4786305.24 702373.29,4786303.46 702372.36,4786302.60 702372.20,4786300.88 702372.48,4786299.50 702368.60,4786297.07 702366.84,4786294.08 702362.10,4786290.01 702360.16,4786288.93 702356.10,4786285.33 702353.83,4786284.74 702350.91,4786285.24 702350.03,4786284.94 702349.02,4786284.53 702348.42,4786284.51 702347.05,4786285.17 702346.07,4786285.17 702345.18,4786284.87 702343.06,4786283.53 702341.94,4786283.74 702340.26,4786284.88 702339.20,4786284.69 702337.91,4786283.40 702336.41,4786282.42 702334.98,4786282.62 702334.39,4786281.44 702332.11,4786281.12 702331.30,4786281.89 702332.26,4786283.38 702330.15,4786284.82 702329.29,4786288.02 702329.88,4786289.02 702326.10,4786291.38 702324.46,4786291.66 702322.35,4786293.61 702320.87,4786293.09 702320.04,4786292.61 702317.34,4786292.78 702316.93,4786293.74 702316.98,4786294.56 702316.78,4786295.10 702315.93,4786294.41 702314.04,4786293.61 702312.35,4786293.17 702310.08,4786292.63 702306.98,4786292.18 702304.31,4786291.55 702303.02,4786291.63 702299.79,4786293.40 702298.37,4786294.23 702296.61,4786295.02 702298.02,4786296.93 702299.78,4786297.34 702300.53,4786298.77 702299.04,4786300.19 702296.73,4786300.88 702293.66,4786300.74 702292.14,4786301.19 702285.38,4786301.81 702281.43,4786302.04 702280.22,4786302.40 702277.27,4786302.40 702274.48,4786302.02 702271.88,4786302.53 702269.22,4786302.56 702268.02,4786302.66 702266.25,4786307.36 702264.96,4786310.15 702264.57,4786313.35 702264.62,4786314.83 702266.11,4786318.51 702273.49,4786323.86 702275.72,4786330.33 702284.55,4786334.71 702286.99,4786341.94 702291.31,4786346.88 702281.68,4786354.13 702271.15,4786371.96 702272.73,4786376.95 702274.62,4786379.03 702275.61,4786380.28 702278.14,4786381.50 702278.49,4786383.09 702274.70,4786381.65 702273.05,4786381.90 702272.93,4786383.23 702274.32,4786385.11 702273.36,4786387.20 702273.60,4786388.95 702272.93,4786390.55 702271.79,4786390.19 702269.55,4786394.18 702266.12,4786392.42 702265.29,4786390.00 702264.08,4786389.34 702255.63,4786393.95 702254.69,4786395.33 702254.01,4786400.50 702256.12,4786404.70 702258.07,4786405.57 702258.42,4786407.48 702259.79,4786408.78 702258.58,4786410.01 702258.74,4786411.18 702260.05,4786412.07 702260.13,4786415.87 702260.21,4786421.61 702259.33,4786423.84 702257.97,4786431.38 702253.92,4786431.20 702248.06,4786427.68 702243.05,4786425.56 702243.68,4786422.42 702245.34,4786418.83 702244.63,4786417.29 702242.49,4786419.67 702240.82,4786420.68 702240.23,4786422.05 702240.70,4786423.83 702236.93,4786426.81 702234.90,4786426.99 702233.86,4786428.13 702233.30,4786426.62 702231.73,4786425.71 702230.54,4786426.11 702228.08,4786423.95 702226.29,4786425.55 702226.27,4786426.27 702225.89,4786426.82 702225.04,4786426.30 702219.34,4786432.40 702219.13,4786433.97 702218.00,4786434.00 702218.07,4786434.75 702219.14,4786435.22 702221.20,4786436.67 702218.66,4786437.06 702219.07,4786438.86 702220.25,4786440.36 702220.99,4786440.62 702221.17,4786441.03 702219.92,4786441.76 702218.68,4786441.10 702217.46,4786441.39 702215.36,4786440.82 702214.74,4786442.15 702216.81,4786443.58 702215.02,4786444.63 702213.16,4786443.97 702210.64,4786444.37 702207.60,4786443.16 702205.81,4786444.48 702203.21,4786444.30 702190.38,4786440.38 702191.00,4786431.44 702192.39,4786425.26 702190.38,4786425.27 702193.26,4786416.44 702194.69,4786416.10 702195.29,4786414.33 702195.33,4786411.12 702197.01,4786408.78 702195.05,4786408.51 702194.01,4786408.86 702192.75,4786407.95 702193.58,4786404.95 702193.06,4786404.75 702192.84,4786402.09 702191.85,4786401.62 702192.21,4786399.62 702189.70,4786395.82 702184.53,4786391.92 702185.07,4786391.23 702184.73,4786389.97 702185.63,4786388.74 702183.26,4786385.88 702184.28,4786384.79 702183.50,4786383.30 702183.35,4786380.23 702182.19,4786379.22 702180.42,4786378.92 702178.77,4786377.51 702179.66,4786375.94 702175.67,4786373.67 702175.15,4786374.47 702172.97,4786373.56 702171.36,4786374.49 702171.98,4786375.73 702171.72,4786376.25 702170.57,4786375.63 702169.99,4786376.65 702171.23,4786381.01 702173.40,4786383.14 702172.91,4786384.94 702169.96,4786383.91 702167.50,4786382.42 702166.46,4786382.85 702165.58,4786381.93 702165.53,4786381.05 702164.36,4786379.80 702162.90,4786379.37 702162.39,4786380.26 702163.32,4786382.08 702163.27,4786382.51 702160